$DATA1 SOURCE='HSPICE' VERSION='K-2015.06-SP2 linux64' PARAM_COUNT=0
.TITLE '************************************'
 ron              rd               i(vd)            temper          
 alter#          
 -1.756e+11       -1.837e+10          0.              30.0000       
 1               
