$DATA1 SOURCE='HSPICE' VERSION='K-2015.06-SP2 linux64' PARAM_COUNT=0
.TITLE '************************************'
 ron              rd               -i(vdd)/w        temper          
 alter#          
  1.286e+11        2.839e+10        2.500e-08         30.0000       
 1               
