$DATA1 SOURCE='HSPICE' VERSION='K-2015.06-SP2 linux64' PARAM_COUNT=0
.TITLE '************************************'
 gm               temper           alter#          
  104.9635          25.0000        1               
