$DATA1 SOURCE='HSPICE' VERSION='K-2015.06-SP2 linux64' PARAM_COUNT=0
.TITLE '************************************'
 pcgate           ncgate           temper           alter#          
  5.532e-15        5.529e-15         25.0000        1               
