****** HSPICE -- K-2015.06-SP2 linux64 (Nov 18 2015) ******
 Input File: tsu_b_01.sp
 lic:
 lic: FLEXlm: v11.2.1
 lic: USER:   dxie1                HOSTNAME: mario.ece.utexas.edu
 lic: HOSTID: "90e2ba1b3160"       PID:      9168
 lic: Using FLEXlm license file:
 lic: /usr/local/packages/synopsys_2015/key
 lic: Checkout 1 hspice
 lic: License/Maintenance for hspice will expire on 14-jan-2019/2017.12
 lic: 2(in_use)/50(total) FLOATING license(s) on SERVER /usr/local/packages/synopsys_2015/key
 lic:
 init: begin read circuit files,  cpu clock=  2.80E-01
       option search = /usr/local/packages/synopsys_2015/hspice/hspice/
                         parts/ad
       option search = /usr/local/packages/synopsys_2015/hspice/hspice/
                         parts/ad
       option search = /usr/local/packages/synopsys_2015/hspice/hspice/
                         parts/behave
       option search = /usr/local/packages/synopsys_2015/hspice/hspice/
                         parts/bjt
       option search = /usr/local/packages/synopsys_2015/hspice/hspice/
                         parts/burr_brn
       option search = /usr/local/packages/synopsys_2015/hspice/hspice/
                         parts/comlinear
       option search = /usr/local/packages/synopsys_2015/hspice/hspice/
                         parts/dio
       option search = /usr/local/packages/synopsys_2015/hspice/hspice/
                         parts/fet
       option search = /usr/local/packages/synopsys_2015/hspice/hspice/
                         parts/lin_tech
       option search = /usr/local/packages/synopsys_2015/hspice/hspice/
                         parts/pci
       option search = /usr/local/packages/synopsys_2015/hspice/hspice/
                         parts/signet
       option search = /usr/local/packages/synopsys_2015/hspice/hspice/
                         parts/ti
       option search = /usr/local/packages/synopsys_2015/hspice/hspice/
                         parts/tline
       option search = /usr/local/packages/synopsys_2015/hspice/hspice/
                         parts/xilinx
       option runlvl
       option runlvl =     6.00
       option post
 init: end read circuit files,  cpu clock=  2.80E-01 peak memory=       195 mb
 init: begin check errors,  cpu clock=  2.80E-01
 init: end check errors,  cpu clock=  2.90E-01 peak memory=       195 mb
 init: begin setup matrix, pivot=     0 cpu clock=  2.90E-01
       establish matrix -- done,  cpu clock=  2.90E-01 peak memory=       196 mb
       re-order matrix -- done,  cpu clock=  3.00E-01 peak memory=       196 mb
 init: end setup matrix,  cpu clock=  3.00E-01 peak memory=       196 mb
 sweep: parameter       parameter1       begin, #sweeps =  51
 parameter: t1              =    3.00E-09
 dcop: begin dcop,  cpu clock=  3.00E-01
 dcop: end dcop,  cpu clock=  3.10E-01 peak memory=       196 mb  tot_iter=       9
 output: tsu_b_01.tr0
 sweep: tran tran1    begin, stop_t=  8.00E-09 #sweeps=8001 cpu clock=  3.10E-01
 tran: time= 8.8861E-10 tot_iter=      14 conv_iter=       7 cpu clock= 3.10E-01
 tran: time= 1.6050E-09 tot_iter=     871 conv_iter=     170 cpu clock= 4.30E-01
 tran: time= 2.4041E-09 tot_iter=    1179 conv_iter=     247 cpu clock= 4.70E-01
 tran: time= 3.2004E-09 tot_iter=    1861 conv_iter=     377 cpu clock= 5.60E-01
 tran: time= 4.0101E-09 tot_iter=    2390 conv_iter=     488 cpu clock= 6.30E-01
 tran: time= 4.8084E-09 tot_iter=    2826 conv_iter=     593 cpu clock= 6.80E-01
 tran: time= 5.6001E-09 tot_iter=    3536 conv_iter=     740 cpu clock= 7.70E-01
 tran: time= 6.4066E-09 tot_iter=    3852 conv_iter=     814 cpu clock= 8.10E-01
 tran: time= 7.2094E-09 tot_iter=    4474 conv_iter=     948 cpu clock= 8.90E-01
 tran: time= 8.0000E-09 tot_iter=    4846 conv_iter=    1030 cpu clock= 9.30E-01
 sweep: tran tran1    end,  cpu clock=  9.30E-01 peak memory=       196 mb
 parameter: t1              =    3.01E-09
 output: tsu_b_01.tr0
 sweep: tran tran2    begin, stop_t=  8.00E-09 #sweeps=8001 cpu clock=  9.40E-01
 tran: time= 8.8861E-10 tot_iter=      14 conv_iter=       7 cpu clock= 9.40E-01
 tran: time= 1.6050E-09 tot_iter=     871 conv_iter=     170 cpu clock= 1.05E+00
 tran: time= 2.4041E-09 tot_iter=    1179 conv_iter=     247 cpu clock= 1.09E+00
 tran: time= 3.2049E-09 tot_iter=    1879 conv_iter=     384 cpu clock= 1.14E+00
 tran: time= 4.0343E-09 tot_iter=    2320 conv_iter=     481 cpu clock= 1.17E+00
 tran: time= 4.8450E-09 tot_iter=    2805 conv_iter=     598 cpu clock= 1.20E+00
 tran: time= 5.6045E-09 tot_iter=    3563 conv_iter=     751 cpu clock= 1.25E+00
 tran: time= 6.4088E-09 tot_iter=    3842 conv_iter=     819 cpu clock= 1.26E+00
 tran: time= 7.2059E-09 tot_iter=    4431 conv_iter=     944 cpu clock= 1.30E+00
 tran: time= 8.0000E-09 tot_iter=    4893 conv_iter=    1043 cpu clock= 1.33E+00
 sweep: tran tran2    end,  cpu clock=  1.33E+00 peak memory=       191 mb
 parameter: t1              =    3.02E-09
 output: tsu_b_01.tr0
 sweep: tran tran3    begin, stop_t=  8.00E-09 #sweeps=8001 cpu clock=  1.33E+00
 tran: time= 8.8861E-10 tot_iter=      14 conv_iter=       7 cpu clock= 1.33E+00
 tran: time= 1.6050E-09 tot_iter=     871 conv_iter=     170 cpu clock= 1.38E+00
 tran: time= 2.4041E-09 tot_iter=    1179 conv_iter=     247 cpu clock= 1.40E+00
 tran: time= 3.2000E-09 tot_iter=    1882 conv_iter=     384 cpu clock= 1.44E+00
 tran: time= 4.0196E-09 tot_iter=    2362 conv_iter=     488 cpu clock= 1.48E+00
 tran: time= 4.8073E-09 tot_iter=    2833 conv_iter=     602 cpu clock= 1.50E+00
 tran: time= 5.6003E-09 tot_iter=    3560 conv_iter=     749 cpu clock= 1.55E+00
 tran: time= 6.4067E-09 tot_iter=    3876 conv_iter=     823 cpu clock= 1.57E+00
 tran: time= 7.2110E-09 tot_iter=    4469 conv_iter=     952 cpu clock= 1.61E+00
 tran: time= 8.0000E-09 tot_iter=    4835 conv_iter=    1033 cpu clock= 1.63E+00
 sweep: tran tran3    end,  cpu clock=  1.63E+00 peak memory=       191 mb
 parameter: t1              =    3.03E-09
 output: tsu_b_01.tr0
 sweep: tran tran4    begin, stop_t=  8.00E-09 #sweeps=8001 cpu clock=  1.63E+00
 tran: time= 8.8861E-10 tot_iter=      14 conv_iter=       7 cpu clock= 1.63E+00
 tran: time= 1.6050E-09 tot_iter=     871 conv_iter=     170 cpu clock= 1.68E+00
 tran: time= 2.4041E-09 tot_iter=    1179 conv_iter=     247 cpu clock= 1.70E+00
 tran: time= 3.2041E-09 tot_iter=    1863 conv_iter=     380 cpu clock= 1.74E+00
 tran: time= 4.0249E-09 tot_iter=    2346 conv_iter=     484 cpu clock= 1.78E+00
 tran: time= 4.8071E-09 tot_iter=    2808 conv_iter=     594 cpu clock= 1.80E+00
 tran: time= 5.6065E-09 tot_iter=    3500 conv_iter=     737 cpu clock= 1.85E+00
 tran: time= 6.4032E-09 tot_iter=    3796 conv_iter=     809 cpu clock= 1.87E+00
 tran: time= 7.2099E-09 tot_iter=    4380 conv_iter=     936 cpu clock= 1.90E+00
 tran: time= 8.0000E-09 tot_iter=    4753 conv_iter=    1019 cpu clock= 1.93E+00
 sweep: tran tran4    end,  cpu clock=  1.93E+00 peak memory=       191 mb
 parameter: t1              =    3.04E-09
 output: tsu_b_01.tr0
 sweep: tran tran5    begin, stop_t=  8.00E-09 #sweeps=8001 cpu clock=  1.93E+00
 tran: time= 8.8861E-10 tot_iter=      14 conv_iter=       7 cpu clock= 1.93E+00
 tran: time= 1.6050E-09 tot_iter=     871 conv_iter=     170 cpu clock= 1.98E+00
 tran: time= 2.4041E-09 tot_iter=    1179 conv_iter=     247 cpu clock= 2.00E+00
 tran: time= 3.2039E-09 tot_iter=    1940 conv_iter=     392 cpu clock= 2.05E+00
 tran: time= 4.0205E-09 tot_iter=    2419 conv_iter=     495 cpu clock= 2.08E+00
 tran: time= 4.8074E-09 tot_iter=    2864 conv_iter=     602 cpu clock= 2.11E+00
 tran: time= 5.6045E-09 tot_iter=    3694 conv_iter=     769 cpu clock= 2.16E+00
 tran: time= 6.4032E-09 tot_iter=    3996 conv_iter=     843 cpu clock= 2.18E+00
 tran: time= 7.2091E-09 tot_iter=    4616 conv_iter=     977 cpu clock= 2.21E+00
 tran: time= 8.0000E-09 tot_iter=    4976 conv_iter=    1057 cpu clock= 2.24E+00
 sweep: tran tran5    end,  cpu clock=  2.24E+00 peak memory=       191 mb
 parameter: t1              =    3.05E-09
 output: tsu_b_01.tr0
 sweep: tran tran6    begin, stop_t=  8.00E-09 #sweeps=8001 cpu clock=  2.24E+00
 tran: time= 8.8861E-10 tot_iter=      14 conv_iter=       7 cpu clock= 2.24E+00
 tran: time= 1.6050E-09 tot_iter=     871 conv_iter=     170 cpu clock= 2.30E+00
 tran: time= 2.4041E-09 tot_iter=    1179 conv_iter=     247 cpu clock= 2.31E+00
 tran: time= 3.2033E-09 tot_iter=    1935 conv_iter=     389 cpu clock= 2.36E+00
 tran: time= 4.0268E-09 tot_iter=    2432 conv_iter=     498 cpu clock= 2.39E+00
 tran: time= 4.8457E-09 tot_iter=    2925 conv_iter=     616 cpu clock= 2.42E+00
 tran: time= 5.6001E-09 tot_iter=    3629 conv_iter=     762 cpu clock= 2.47E+00
 tran: time= 6.4066E-09 tot_iter=    3945 conv_iter=     836 cpu clock= 2.49E+00
 tran: time= 7.2024E-09 tot_iter=    4587 conv_iter=     972 cpu clock= 2.53E+00
 tran: time= 8.0000E-09 tot_iter=    5004 conv_iter=    1060 cpu clock= 2.56E+00
 sweep: tran tran6    end,  cpu clock=  2.56E+00 peak memory=       191 mb
 parameter: t1              =    3.06E-09
 output: tsu_b_01.tr0
 sweep: tran tran7    begin, stop_t=  8.00E-09 #sweeps=8001 cpu clock=  2.56E+00
 tran: time= 8.8861E-10 tot_iter=      14 conv_iter=       7 cpu clock= 2.56E+00
 tran: time= 1.6050E-09 tot_iter=     871 conv_iter=     170 cpu clock= 2.61E+00
 tran: time= 2.4041E-09 tot_iter=    1179 conv_iter=     247 cpu clock= 2.63E+00
 tran: time= 3.2008E-09 tot_iter=    1908 conv_iter=     385 cpu clock= 2.68E+00
 tran: time= 4.0028E-09 tot_iter=    2421 conv_iter=     493 cpu clock= 2.71E+00
 tran: time= 4.8438E-09 tot_iter=    2874 conv_iter=     605 cpu clock= 2.74E+00
 tran: time= 5.6046E-09 tot_iter=    3666 conv_iter=     765 cpu clock= 2.79E+00
 tran: time= 6.4033E-09 tot_iter=    3967 conv_iter=     839 cpu clock= 2.81E+00
 tran: time= 7.2105E-09 tot_iter=    4546 conv_iter=     964 cpu clock= 2.85E+00
 tran: time= 8.0000E-09 tot_iter=    4913 conv_iter=    1045 cpu clock= 2.87E+00
 sweep: tran tran7    end,  cpu clock=  2.87E+00 peak memory=       191 mb
 parameter: t1              =    3.07E-09
 output: tsu_b_01.tr0
 sweep: tran tran8    begin, stop_t=  8.00E-09 #sweeps=8001 cpu clock=  2.87E+00
 tran: time= 8.8861E-10 tot_iter=      14 conv_iter=       7 cpu clock= 2.87E+00
 tran: time= 1.6050E-09 tot_iter=     871 conv_iter=     170 cpu clock= 2.93E+00
 tran: time= 2.4041E-09 tot_iter=    1179 conv_iter=     247 cpu clock= 2.94E+00
 tran: time= 3.2045E-09 tot_iter=    1959 conv_iter=     394 cpu clock= 2.99E+00
 tran: time= 4.0192E-09 tot_iter=    2438 conv_iter=     499 cpu clock= 3.02E+00
 tran: time= 4.8078E-09 tot_iter=    2883 conv_iter=     606 cpu clock= 3.05E+00
 tran: time= 5.6067E-09 tot_iter=    3568 conv_iter=     748 cpu clock= 3.10E+00
 tran: time= 6.4068E-09 tot_iter=    3880 conv_iter=     821 cpu clock= 3.12E+00
 tran: time= 7.2020E-09 tot_iter=    4529 conv_iter=     957 cpu clock= 3.16E+00
 tran: time= 8.0000E-09 tot_iter=    4871 conv_iter=    1032 cpu clock= 3.18E+00
 sweep: tran tran8    end,  cpu clock=  3.18E+00 peak memory=       191 mb
 parameter: t1              =    3.08E-09
 output: tsu_b_01.tr0
 sweep: tran tran9    begin, stop_t=  8.00E-09 #sweeps=8001 cpu clock=  3.18E+00
 tran: time= 8.8861E-10 tot_iter=      14 conv_iter=       7 cpu clock= 3.18E+00
 tran: time= 1.6050E-09 tot_iter=     871 conv_iter=     170 cpu clock= 3.23E+00
 tran: time= 2.4041E-09 tot_iter=    1179 conv_iter=     247 cpu clock= 3.25E+00
 tran: time= 3.2050E-09 tot_iter=    1936 conv_iter=     389 cpu clock= 3.30E+00
 tran: time= 4.0363E-09 tot_iter=    2424 conv_iter=     494 cpu clock= 3.33E+00
 tran: time= 4.8084E-09 tot_iter=    2872 conv_iter=     604 cpu clock= 3.36E+00
 tran: time= 5.6045E-09 tot_iter=    3706 conv_iter=     769 cpu clock= 3.41E+00
 tran: time= 6.4082E-09 tot_iter=    4012 conv_iter=     841 cpu clock= 3.43E+00
 tran: time= 7.2034E-09 tot_iter=    4607 conv_iter=     967 cpu clock= 3.46E+00
 tran: time= 8.0000E-09 tot_iter=    4963 conv_iter=    1044 cpu clock= 3.48E+00
 sweep: tran tran9    end,  cpu clock=  3.48E+00 peak memory=       191 mb
 parameter: t1              =    3.09E-09
 output: tsu_b_01.tr0
 sweep: tran tran10   begin, stop_t=  8.00E-09 #sweeps=8001 cpu clock=  3.49E+00
 tran: time= 8.8861E-10 tot_iter=      14 conv_iter=       7 cpu clock= 3.49E+00
 tran: time= 1.6050E-09 tot_iter=     871 conv_iter=     170 cpu clock= 3.54E+00
 tran: time= 2.4041E-09 tot_iter=    1179 conv_iter=     247 cpu clock= 3.56E+00
 tran: time= 3.2029E-09 tot_iter=    1977 conv_iter=     398 cpu clock= 3.61E+00
 tran: time= 4.0204E-09 tot_iter=    2492 conv_iter=     509 cpu clock= 3.64E+00
 tran: time= 4.8436E-09 tot_iter=    2949 conv_iter=     619 cpu clock= 3.67E+00
 tran: time= 5.6058E-09 tot_iter=    3645 conv_iter=     763 cpu clock= 3.72E+00
 tran: time= 6.4030E-09 tot_iter=    3937 conv_iter=     835 cpu clock= 3.73E+00
 tran: time= 7.2107E-09 tot_iter=    4534 conv_iter=     965 cpu clock= 3.77E+00
 tran: time= 8.0000E-09 tot_iter=    4900 conv_iter=    1046 cpu clock= 3.79E+00
 sweep: tran tran10   end,  cpu clock=  3.79E+00 peak memory=       191 mb
 parameter: t1              =    3.10E-09
 output: tsu_b_01.tr0
 sweep: tran tran11   begin, stop_t=  8.00E-09 #sweeps=8001 cpu clock=  3.80E+00
 tran: time= 8.8861E-10 tot_iter=      14 conv_iter=       7 cpu clock= 3.80E+00
 tran: time= 1.6050E-09 tot_iter=     871 conv_iter=     170 cpu clock= 3.85E+00
 tran: time= 2.4041E-09 tot_iter=    1179 conv_iter=     247 cpu clock= 3.87E+00
 tran: time= 3.2052E-09 tot_iter=    1976 conv_iter=     400 cpu clock= 3.92E+00
 tran: time= 4.0077E-09 tot_iter=    2562 conv_iter=     524 cpu clock= 3.97E+00
 tran: time= 4.8061E-09 tot_iter=    3032 conv_iter=     640 cpu clock= 3.99E+00
 tran: time= 5.6039E-09 tot_iter=    3845 conv_iter=     802 cpu clock= 4.04E+00
 tran: time= 6.4078E-09 tot_iter=    4146 conv_iter=     872 cpu clock= 4.06E+00
 tran: time= 7.2016E-09 tot_iter=    4749 conv_iter=    1000 cpu clock= 4.10E+00
 tran: time= 8.0000E-09 tot_iter=    5091 conv_iter=    1075 cpu clock= 4.12E+00
 sweep: tran tran11   end,  cpu clock=  4.12E+00 peak memory=       191 mb
 parameter: t1              =    3.11E-09
 output: tsu_b_01.tr0
 sweep: tran tran12   begin, stop_t=  8.00E-09 #sweeps=8001 cpu clock=  4.12E+00
 tran: time= 8.8861E-10 tot_iter=      14 conv_iter=       7 cpu clock= 4.12E+00
 tran: time= 1.6050E-09 tot_iter=     871 conv_iter=     170 cpu clock= 4.18E+00
 tran: time= 2.4041E-09 tot_iter=    1179 conv_iter=     247 cpu clock= 4.19E+00
 tran: time= 3.2040E-09 tot_iter=    1924 conv_iter=     392 cpu clock= 4.24E+00
 tran: time= 4.0301E-09 tot_iter=    2486 conv_iter=     510 cpu clock= 4.28E+00
 tran: time= 4.8079E-09 tot_iter=    2925 conv_iter=     617 cpu clock= 4.30E+00
 tran: time= 5.6066E-09 tot_iter=    3644 conv_iter=     762 cpu clock= 4.35E+00
 tran: time= 6.4067E-09 tot_iter=    3958 conv_iter=     835 cpu clock= 4.37E+00
 tran: time= 7.2020E-09 tot_iter=    4608 conv_iter=     971 cpu clock= 4.41E+00
 tran: time= 8.0000E-09 tot_iter=    4950 conv_iter=    1046 cpu clock= 4.43E+00
 sweep: tran tran12   end,  cpu clock=  4.43E+00 peak memory=       191 mb
 parameter: t1              =    3.12E-09
 output: tsu_b_01.tr0
 sweep: tran tran13   begin, stop_t=  8.00E-09 #sweeps=8001 cpu clock=  4.43E+00
 tran: time= 8.8861E-10 tot_iter=      14 conv_iter=       7 cpu clock= 4.43E+00
 tran: time= 1.6050E-09 tot_iter=     871 conv_iter=     170 cpu clock= 4.48E+00
 tran: time= 2.4041E-09 tot_iter=    1179 conv_iter=     247 cpu clock= 4.50E+00
 tran: time= 3.2012E-09 tot_iter=    1983 conv_iter=     403 cpu clock= 4.55E+00
 tran: time= 4.0076E-09 tot_iter=    2565 conv_iter=     523 cpu clock= 4.59E+00
 tran: time= 4.8073E-09 tot_iter=    3041 conv_iter=     640 cpu clock= 4.62E+00
 tran: time= 5.6067E-09 tot_iter=    3727 conv_iter=     782 cpu clock= 4.66E+00
 tran: time= 6.4068E-09 tot_iter=    4040 conv_iter=     855 cpu clock= 4.68E+00
 tran: time= 7.2020E-09 tot_iter=    4689 conv_iter=     991 cpu clock= 4.72E+00
 tran: time= 8.0000E-09 tot_iter=    5031 conv_iter=    1066 cpu clock= 4.74E+00
 sweep: tran tran13   end,  cpu clock=  4.74E+00 peak memory=       191 mb
 parameter: t1              =    3.13E-09
 output: tsu_b_01.tr0
 sweep: tran tran14   begin, stop_t=  8.00E-09 #sweeps=8001 cpu clock=  4.74E+00
 tran: time= 8.8861E-10 tot_iter=      14 conv_iter=       7 cpu clock= 4.74E+00
 tran: time= 1.6050E-09 tot_iter=     871 conv_iter=     170 cpu clock= 4.80E+00
 tran: time= 2.4041E-09 tot_iter=    1179 conv_iter=     247 cpu clock= 4.82E+00
 tran: time= 3.2051E-09 tot_iter=    1974 conv_iter=     402 cpu clock= 4.87E+00
 tran: time= 4.0195E-09 tot_iter=    2514 conv_iter=     517 cpu clock= 4.91E+00
 tran: time= 4.8087E-09 tot_iter=    2961 conv_iter=     624 cpu clock= 4.93E+00
 tran: time= 5.6045E-09 tot_iter=    3752 conv_iter=     785 cpu clock= 4.98E+00
 tran: time= 6.4031E-09 tot_iter=    4054 conv_iter=     859 cpu clock= 5.00E+00
 tran: time= 7.2103E-09 tot_iter=    4642 conv_iter=     986 cpu clock= 5.03E+00
 tran: time= 8.0000E-09 tot_iter=    5009 conv_iter=    1067 cpu clock= 5.06E+00
 sweep: tran tran14   end,  cpu clock=  5.06E+00 peak memory=       191 mb
 parameter: t1              =    3.14E-09
 output: tsu_b_01.tr0
 sweep: tran tran15   begin, stop_t=  8.00E-09 #sweeps=8001 cpu clock=  5.06E+00
 tran: time= 8.8861E-10 tot_iter=      14 conv_iter=       7 cpu clock= 5.06E+00
 tran: time= 1.6050E-09 tot_iter=     871 conv_iter=     170 cpu clock= 5.11E+00
 tran: time= 2.4041E-09 tot_iter=    1179 conv_iter=     247 cpu clock= 5.13E+00
 tran: time= 3.2001E-09 tot_iter=    1950 conv_iter=     398 cpu clock= 5.18E+00
 tran: time= 4.0300E-09 tot_iter=    2543 conv_iter=     520 cpu clock= 5.22E+00
 tran: time= 4.8081E-09 tot_iter=    2983 conv_iter=     627 cpu clock= 5.25E+00
 tran: time= 5.6045E-09 tot_iter=    3774 conv_iter=     788 cpu clock= 5.29E+00
 tran: time= 6.4031E-09 tot_iter=    4076 conv_iter=     862 cpu clock= 5.31E+00
 tran: time= 7.2100E-09 tot_iter=    4661 conv_iter=     989 cpu clock= 5.35E+00
 tran: time= 8.0000E-09 tot_iter=    5034 conv_iter=    1072 cpu clock= 5.37E+00
 sweep: tran tran15   end,  cpu clock=  5.37E+00 peak memory=       191 mb
 parameter: t1              =    3.15E-09
 output: tsu_b_01.tr0
 sweep: tran tran16   begin, stop_t=  8.00E-09 #sweeps=8001 cpu clock=  5.37E+00
 tran: time= 8.8861E-10 tot_iter=      14 conv_iter=       7 cpu clock= 5.37E+00
 tran: time= 1.6050E-09 tot_iter=     871 conv_iter=     170 cpu clock= 5.43E+00
 tran: time= 2.4041E-09 tot_iter=    1179 conv_iter=     247 cpu clock= 5.45E+00
 tran: time= 3.2000E-09 tot_iter=    1875 conv_iter=     383 cpu clock= 5.49E+00
 tran: time= 4.0270E-09 tot_iter=    2471 conv_iter=     507 cpu clock= 5.53E+00
 tran: time= 4.8457E-09 tot_iter=    2964 conv_iter=     625 cpu clock= 5.56E+00
 tran: time= 5.6001E-09 tot_iter=    3668 conv_iter=     771 cpu clock= 5.61E+00
 tran: time= 6.4091E-09 tot_iter=    3960 conv_iter=     840 cpu clock= 5.62E+00
 tran: time= 7.2075E-09 tot_iter=    4552 conv_iter=     967 cpu clock= 5.66E+00
 tran: time= 8.0000E-09 tot_iter=    4914 conv_iter=    1047 cpu clock= 5.68E+00
 sweep: tran tran16   end,  cpu clock=  5.68E+00 peak memory=       191 mb
 parameter: t1              =    3.16E-09
 output: tsu_b_01.tr0
 sweep: tran tran17   begin, stop_t=  8.00E-09 #sweeps=8001 cpu clock=  5.68E+00
 tran: time= 8.8861E-10 tot_iter=      14 conv_iter=       7 cpu clock= 5.68E+00
 tran: time= 1.6050E-09 tot_iter=     871 conv_iter=     170 cpu clock= 5.74E+00
 tran: time= 2.4041E-09 tot_iter=    1179 conv_iter=     247 cpu clock= 5.76E+00
 tran: time= 3.2020E-09 tot_iter=    1882 conv_iter=     385 cpu clock= 5.80E+00
 tran: time= 4.0304E-09 tot_iter=    2556 conv_iter=     523 cpu clock= 5.84E+00
 tran: time= 4.8437E-09 tot_iter=    2997 conv_iter=     629 cpu clock= 5.87E+00
 tran: time= 5.6058E-09 tot_iter=    3692 conv_iter=     773 cpu clock= 5.91E+00
 tran: time= 6.4031E-09 tot_iter=    3984 conv_iter=     845 cpu clock= 5.93E+00
 tran: time= 7.2100E-09 tot_iter=    4582 conv_iter=     975 cpu clock= 5.97E+00
 tran: time= 8.0000E-09 tot_iter=    4955 conv_iter=    1058 cpu clock= 5.99E+00
 sweep: tran tran17   end,  cpu clock=  5.99E+00 peak memory=       191 mb
 parameter: t1              =    3.17E-09
 output: tsu_b_01.tr0
 sweep: tran tran18   begin, stop_t=  8.00E-09 #sweeps=8001 cpu clock=  5.99E+00
 tran: time= 8.8861E-10 tot_iter=      14 conv_iter=       7 cpu clock= 5.99E+00
 tran: time= 1.6050E-09 tot_iter=     871 conv_iter=     170 cpu clock= 6.05E+00
 tran: time= 2.4041E-09 tot_iter=    1179 conv_iter=     247 cpu clock= 6.06E+00
 tran: time= 3.2014E-09 tot_iter=    1869 conv_iter=     383 cpu clock= 6.11E+00
 tran: time= 4.0325E-09 tot_iter=    2500 conv_iter=     513 cpu clock= 6.15E+00
 tran: time= 4.8450E-09 tot_iter=    2981 conv_iter=     630 cpu clock= 6.18E+00
 tran: time= 5.6042E-09 tot_iter=    3777 conv_iter=     791 cpu clock= 6.23E+00
 tran: time= 6.4070E-09 tot_iter=    4087 conv_iter=     864 cpu clock= 6.25E+00
 tran: time= 7.2053E-09 tot_iter=    4691 conv_iter=     993 cpu clock= 6.28E+00
 tran: time= 8.0000E-09 tot_iter=    5165 conv_iter=    1095 cpu clock= 6.31E+00
 sweep: tran tran18   end,  cpu clock=  6.31E+00 peak memory=       191 mb
 parameter: t1              =    3.18E-09
 output: tsu_b_01.tr0
 sweep: tran tran19   begin, stop_t=  8.00E-09 #sweeps=8001 cpu clock=  6.31E+00
 tran: time= 8.8861E-10 tot_iter=      14 conv_iter=       7 cpu clock= 6.31E+00
 tran: time= 1.6050E-09 tot_iter=     871 conv_iter=     170 cpu clock= 6.37E+00
 tran: time= 2.4041E-09 tot_iter=    1179 conv_iter=     247 cpu clock= 6.39E+00
 tran: time= 3.2075E-09 tot_iter=    1845 conv_iter=     379 cpu clock= 6.43E+00
 tran: time= 4.0500E-09 tot_iter=    2527 conv_iter=     519 cpu clock= 6.48E+00
 tran: time= 4.8395E-09 tot_iter=    2974 conv_iter=     631 cpu clock= 6.50E+00
 tran: time= 5.6057E-09 tot_iter=    3714 conv_iter=     779 cpu clock= 6.55E+00
 tran: time= 6.4031E-09 tot_iter=    4006 conv_iter=     851 cpu clock= 6.57E+00
 tran: time= 7.2102E-09 tot_iter=    4598 conv_iter=     980 cpu clock= 6.61E+00
 tran: time= 8.0000E-09 tot_iter=    4965 conv_iter=    1061 cpu clock= 6.63E+00
 sweep: tran tran19   end,  cpu clock=  6.63E+00 peak memory=       191 mb
 parameter: t1              =    3.19E-09
 output: tsu_b_01.tr0
 sweep: tran tran20   begin, stop_t=  8.00E-09 #sweeps=8001 cpu clock=  6.63E+00
 tran: time= 8.8861E-10 tot_iter=      14 conv_iter=       7 cpu clock= 6.63E+00
 tran: time= 1.6050E-09 tot_iter=     871 conv_iter=     170 cpu clock= 6.69E+00
 tran: time= 2.4041E-09 tot_iter=    1179 conv_iter=     247 cpu clock= 6.71E+00
 tran: time= 3.2007E-09 tot_iter=    1844 conv_iter=     378 cpu clock= 6.75E+00
 tran: time= 4.0337E-09 tot_iter=    2528 conv_iter=     515 cpu clock= 6.79E+00
 tran: time= 4.8436E-09 tot_iter=    2968 conv_iter=     621 cpu clock= 6.82E+00
 tran: time= 5.6058E-09 tot_iter=    3664 conv_iter=     765 cpu clock= 6.86E+00
 tran: time= 6.4031E-09 tot_iter=    3956 conv_iter=     837 cpu clock= 6.88E+00
 tran: time= 7.2100E-09 tot_iter=    4554 conv_iter=     967 cpu clock= 6.92E+00
 tran: time= 8.0000E-09 tot_iter=    4927 conv_iter=    1050 cpu clock= 6.94E+00
 sweep: tran tran20   end,  cpu clock=  6.94E+00 peak memory=       191 mb
 parameter: t1              =    3.20E-09
 output: tsu_b_01.tr0
 sweep: tran tran21   begin, stop_t=  8.00E-09 #sweeps=8001 cpu clock=  6.94E+00
 tran: time= 8.8861E-10 tot_iter=      14 conv_iter=       7 cpu clock= 6.94E+00
 tran: time= 1.6050E-09 tot_iter=     871 conv_iter=     170 cpu clock= 7.00E+00
 tran: time= 2.4041E-09 tot_iter=    1179 conv_iter=     247 cpu clock= 7.02E+00
 tran: time= 3.2000E-09 tot_iter=    1786 conv_iter=     368 cpu clock= 7.06E+00
 tran: time= 4.0265E-09 tot_iter=    2459 conv_iter=     504 cpu clock= 7.10E+00
 tran: time= 4.8074E-09 tot_iter=    2897 conv_iter=     607 cpu clock= 7.13E+00
 tran: time= 5.6066E-09 tot_iter=    3590 conv_iter=     750 cpu clock= 7.17E+00
 tran: time= 6.4067E-09 tot_iter=    3904 conv_iter=     823 cpu clock= 7.19E+00
 tran: time= 7.2023E-09 tot_iter=    4546 conv_iter=     959 cpu clock= 7.23E+00
 tran: time= 8.0000E-09 tot_iter=    4963 conv_iter=    1047 cpu clock= 7.25E+00
 sweep: tran tran21   end,  cpu clock=  7.25E+00 peak memory=       191 mb
 parameter: t1              =    3.21E-09
 output: tsu_b_01.tr0
 sweep: tran tran22   begin, stop_t=  8.00E-09 #sweeps=8001 cpu clock=  7.25E+00
 tran: time= 8.8861E-10 tot_iter=      14 conv_iter=       7 cpu clock= 7.25E+00
 tran: time= 1.6050E-09 tot_iter=     871 conv_iter=     170 cpu clock= 7.31E+00
 tran: time= 2.4041E-09 tot_iter=    1179 conv_iter=     247 cpu clock= 7.33E+00
 tran: time= 3.2086E-09 tot_iter=    1786 conv_iter=     368 cpu clock= 7.37E+00
 tran: time= 4.0500E-09 tot_iter=    2470 conv_iter=     506 cpu clock= 7.41E+00
 tran: time= 4.8394E-09 tot_iter=    2919 conv_iter=     618 cpu clock= 7.44E+00
 tran: time= 5.6067E-09 tot_iter=    3614 conv_iter=     758 cpu clock= 7.48E+00
 tran: time= 6.4068E-09 tot_iter=    3926 conv_iter=     831 cpu clock= 7.50E+00
 tran: time= 7.2020E-09 tot_iter=    4575 conv_iter=     967 cpu clock= 7.54E+00
 tran: time= 8.0000E-09 tot_iter=    4917 conv_iter=    1042 cpu clock= 7.56E+00
 sweep: tran tran22   end,  cpu clock=  7.56E+00 peak memory=       191 mb
 parameter: t1              =    3.22E-09
 output: tsu_b_01.tr0
 sweep: tran tran23   begin, stop_t=  8.00E-09 #sweeps=8001 cpu clock=  7.56E+00
 tran: time= 8.8861E-10 tot_iter=      14 conv_iter=       7 cpu clock= 7.56E+00
 tran: time= 1.6050E-09 tot_iter=     871 conv_iter=     170 cpu clock= 7.62E+00
 tran: time= 2.4041E-09 tot_iter=    1179 conv_iter=     247 cpu clock= 7.64E+00
 tran: time= 3.2086E-09 tot_iter=    1786 conv_iter=     368 cpu clock= 7.68E+00
 tran: time= 4.0321E-09 tot_iter=    2466 conv_iter=     504 cpu clock= 7.72E+00
 tran: time= 4.8066E-09 tot_iter=    2942 conv_iter=     617 cpu clock= 7.75E+00
 tran: time= 5.6061E-09 tot_iter=    3678 conv_iter=     769 cpu clock= 7.80E+00
 tran: time= 6.4033E-09 tot_iter=    3968 conv_iter=     840 cpu clock= 7.81E+00
 tran: time= 7.2066E-09 tot_iter=    4576 conv_iter=     971 cpu clock= 7.85E+00
 tran: time= 8.0000E-09 tot_iter=    5044 conv_iter=    1071 cpu clock= 7.88E+00
 sweep: tran tran23   end,  cpu clock=  7.88E+00 peak memory=       191 mb
 parameter: t1              =    3.23E-09
 output: tsu_b_01.tr0
 sweep: tran tran24   begin, stop_t=  8.00E-09 #sweeps=8001 cpu clock=  7.88E+00
 tran: time= 8.8861E-10 tot_iter=      14 conv_iter=       7 cpu clock= 7.88E+00
 tran: time= 1.6050E-09 tot_iter=     871 conv_iter=     170 cpu clock= 7.94E+00
 tran: time= 2.4041E-09 tot_iter=    1179 conv_iter=     247 cpu clock= 7.96E+00
 tran: time= 3.2086E-09 tot_iter=    1786 conv_iter=     368 cpu clock= 7.99E+00
 tran: time= 4.0031E-09 tot_iter=    2498 conv_iter=     509 cpu clock= 8.04E+00
 tran: time= 4.8438E-09 tot_iter=    2950 conv_iter=     621 cpu clock= 8.07E+00
 tran: time= 5.6046E-09 tot_iter=    3767 conv_iter=     786 cpu clock= 8.12E+00
 tran: time= 6.4090E-09 tot_iter=    4047 conv_iter=     854 cpu clock= 8.14E+00
 tran: time= 7.2099E-09 tot_iter=    4617 conv_iter=     977 cpu clock= 8.17E+00
 tran: time= 8.0000E-09 tot_iter=    4990 conv_iter=    1060 cpu clock= 8.20E+00
 sweep: tran tran24   end,  cpu clock=  8.20E+00 peak memory=       191 mb
 parameter: t1              =    3.24E-09
 output: tsu_b_01.tr0
 sweep: tran tran25   begin, stop_t=  8.00E-09 #sweeps=8001 cpu clock=  8.20E+00
 tran: time= 8.8861E-10 tot_iter=      14 conv_iter=       7 cpu clock= 8.20E+00
 tran: time= 1.6050E-09 tot_iter=     871 conv_iter=     170 cpu clock= 8.25E+00
 tran: time= 2.4041E-09 tot_iter=    1179 conv_iter=     247 cpu clock= 8.27E+00
 tran: time= 3.2086E-09 tot_iter=    1786 conv_iter=     368 cpu clock= 8.31E+00
 tran: time= 4.0357E-09 tot_iter=    2491 conv_iter=     510 cpu clock= 8.36E+00
 tran: time= 4.8070E-09 tot_iter=    2943 conv_iter=     620 cpu clock= 8.38E+00
 tran: time= 5.6004E-09 tot_iter=    3634 conv_iter=     761 cpu clock= 8.43E+00
 tran: time= 6.4067E-09 tot_iter=    3949 conv_iter=     835 cpu clock= 8.44E+00
 tran: time= 7.2094E-09 tot_iter=    4570 conv_iter=     969 cpu clock= 8.48E+00
 tran: time= 8.0000E-09 tot_iter=    4942 conv_iter=    1051 cpu clock= 8.51E+00
 sweep: tran tran25   end,  cpu clock=  8.51E+00 peak memory=       191 mb
 parameter: t1              =    3.25E-09
 output: tsu_b_01.tr0
 sweep: tran tran26   begin, stop_t=  8.00E-09 #sweeps=8001 cpu clock=  8.51E+00
 tran: time= 8.8861E-10 tot_iter=      14 conv_iter=       7 cpu clock= 8.51E+00
 tran: time= 1.6050E-09 tot_iter=     871 conv_iter=     170 cpu clock= 8.56E+00
 tran: time= 2.4041E-09 tot_iter=    1179 conv_iter=     247 cpu clock= 8.58E+00
 tran: time= 3.2086E-09 tot_iter=    1786 conv_iter=     368 cpu clock= 8.62E+00
 tran: time= 4.0337E-09 tot_iter=    2483 conv_iter=     509 cpu clock= 8.66E+00
 tran: time= 4.8437E-09 tot_iter=    2915 conv_iter=     615 cpu clock= 8.69E+00
 tran: time= 5.6058E-09 tot_iter=    3610 conv_iter=     759 cpu clock= 8.73E+00
 tran: time= 6.4031E-09 tot_iter=    3902 conv_iter=     831 cpu clock= 8.75E+00
 tran: time= 7.2100E-09 tot_iter=    4500 conv_iter=     961 cpu clock= 8.79E+00
 tran: time= 8.0000E-09 tot_iter=    4873 conv_iter=    1044 cpu clock= 8.81E+00
 sweep: tran tran26   end,  cpu clock=  8.81E+00 peak memory=       191 mb
 parameter: t1              =    3.26E-09
 output: tsu_b_01.tr0
 sweep: tran tran27   begin, stop_t=  8.00E-09 #sweeps=8001 cpu clock=  8.81E+00
 tran: time= 8.8861E-10 tot_iter=      14 conv_iter=       7 cpu clock= 8.81E+00
 tran: time= 1.6050E-09 tot_iter=     871 conv_iter=     170 cpu clock= 8.87E+00
 tran: time= 2.4041E-09 tot_iter=    1179 conv_iter=     247 cpu clock= 8.89E+00
 tran: time= 3.2086E-09 tot_iter=    1786 conv_iter=     368 cpu clock= 8.93E+00
 tran: time= 4.0191E-09 tot_iter=    2497 conv_iter=     511 cpu clock= 8.97E+00
 tran: time= 4.8084E-09 tot_iter=    2940 conv_iter=     618 cpu clock= 9.00E+00
 tran: time= 5.6001E-09 tot_iter=    3647 conv_iter=     765 cpu clock= 9.04E+00
 tran: time= 6.4066E-09 tot_iter=    3964 conv_iter=     839 cpu clock= 9.06E+00
 tran: time= 7.2110E-09 tot_iter=    4558 conv_iter=     968 cpu clock= 9.10E+00
 tran: time= 8.0000E-09 tot_iter=    4924 conv_iter=    1049 cpu clock= 9.12E+00
 sweep: tran tran27   end,  cpu clock=  9.12E+00 peak memory=       191 mb
 parameter: t1              =    3.27E-09
 output: tsu_b_01.tr0
 sweep: tran tran28   begin, stop_t=  8.00E-09 #sweeps=8001 cpu clock=  9.12E+00
 tran: time= 8.8861E-10 tot_iter=      14 conv_iter=       7 cpu clock= 9.12E+00
 tran: time= 1.6050E-09 tot_iter=     871 conv_iter=     170 cpu clock= 9.18E+00
 tran: time= 2.4041E-09 tot_iter=    1179 conv_iter=     247 cpu clock= 9.20E+00
 tran: time= 3.2086E-09 tot_iter=    1786 conv_iter=     368 cpu clock= 9.23E+00
 tran: time= 4.0500E-09 tot_iter=    2430 conv_iter=     498 cpu clock= 9.28E+00
 tran: time= 4.8056E-09 tot_iter=    2886 conv_iter=     610 cpu clock= 9.31E+00
 tran: time= 5.6066E-09 tot_iter=    3579 conv_iter=     753 cpu clock= 9.35E+00
 tran: time= 6.4067E-09 tot_iter=    3893 conv_iter=     826 cpu clock= 9.37E+00
 tran: time= 7.2023E-09 tot_iter=    4535 conv_iter=     962 cpu clock= 9.41E+00
 tran: time= 8.0000E-09 tot_iter=    4952 conv_iter=    1050 cpu clock= 9.43E+00
 sweep: tran tran28   end,  cpu clock=  9.43E+00 peak memory=       191 mb
 parameter: t1              =    3.28E-09
 output: tsu_b_01.tr0
 sweep: tran tran29   begin, stop_t=  8.00E-09 #sweeps=8001 cpu clock=  9.43E+00
 tran: time= 8.8861E-10 tot_iter=      14 conv_iter=       7 cpu clock= 9.43E+00
 tran: time= 1.6050E-09 tot_iter=     871 conv_iter=     170 cpu clock= 9.49E+00
 tran: time= 2.4041E-09 tot_iter=    1179 conv_iter=     247 cpu clock= 9.50E+00
 tran: time= 3.2086E-09 tot_iter=    1786 conv_iter=     368 cpu clock= 9.54E+00
 tran: time= 4.0500E-09 tot_iter=    2433 conv_iter=     497 cpu clock= 9.59E+00
 tran: time= 4.8409E-09 tot_iter=    2882 conv_iter=     608 cpu clock= 9.61E+00
 tran: time= 5.6066E-09 tot_iter=    3580 conv_iter=     752 cpu clock= 9.66E+00
 tran: time= 6.4067E-09 tot_iter=    3894 conv_iter=     825 cpu clock= 9.67E+00
 tran: time= 7.2023E-09 tot_iter=    4536 conv_iter=     961 cpu clock= 9.71E+00
 tran: time= 8.0000E-09 tot_iter=    4953 conv_iter=    1049 cpu clock= 9.74E+00
 sweep: tran tran29   end,  cpu clock=  9.74E+00 peak memory=       191 mb
 parameter: t1              =    3.29E-09
 output: tsu_b_01.tr0
 sweep: tran tran30   begin, stop_t=  8.00E-09 #sweeps=8001 cpu clock=  9.74E+00
 tran: time= 8.8861E-10 tot_iter=      14 conv_iter=       7 cpu clock= 9.74E+00
 tran: time= 1.6050E-09 tot_iter=     871 conv_iter=     170 cpu clock= 9.80E+00
 tran: time= 2.4041E-09 tot_iter=    1179 conv_iter=     247 cpu clock= 9.82E+00
 tran: time= 3.2086E-09 tot_iter=    1786 conv_iter=     368 cpu clock= 9.85E+00
 tran: time= 4.0401E-09 tot_iter=    2450 conv_iter=     501 cpu clock= 9.90E+00
 tran: time= 4.8440E-09 tot_iter=    2918 conv_iter=     614 cpu clock= 9.93E+00
 tran: time= 5.6066E-09 tot_iter=    3605 conv_iter=     756 cpu clock= 9.97E+00
 tran: time= 6.4067E-09 tot_iter=    3919 conv_iter=     829 cpu clock= 9.99E+00
 tran: time= 7.2027E-09 tot_iter=    4548 conv_iter=     962 cpu clock= 1.00E+01
 tran: time= 8.0000E-09 tot_iter=    4896 conv_iter=    1037 cpu clock= 1.01E+01
 sweep: tran tran30   end,  cpu clock=  1.01E+01 peak memory=       191 mb
 parameter: t1              =    3.30E-09
 output: tsu_b_01.tr0
 sweep: tran tran31   begin, stop_t=  8.00E-09 #sweeps=8001 cpu clock=  1.01E+01
 tran: time= 8.8861E-10 tot_iter=      14 conv_iter=       7 cpu clock= 1.01E+01
 tran: time= 1.6050E-09 tot_iter=     871 conv_iter=     170 cpu clock= 1.01E+01
 tran: time= 2.4041E-09 tot_iter=    1179 conv_iter=     247 cpu clock= 1.01E+01
 tran: time= 3.2086E-09 tot_iter=    1786 conv_iter=     368 cpu clock= 1.02E+01
 tran: time= 4.0094E-09 tot_iter=    2438 conv_iter=     501 cpu clock= 1.02E+01
 tran: time= 4.8065E-09 tot_iter=    2917 conv_iter=     618 cpu clock= 1.02E+01
 tran: time= 5.6063E-09 tot_iter=    3630 conv_iter=     763 cpu clock= 1.03E+01
 tran: time= 6.4032E-09 tot_iter=    3925 conv_iter=     835 cpu clock= 1.03E+01
 tran: time= 7.2011E-09 tot_iter=    4551 conv_iter=     967 cpu clock= 1.03E+01
 tran: time= 8.0000E-09 tot_iter=    4919 conv_iter=    1048 cpu clock= 1.03E+01
 sweep: tran tran31   end,  cpu clock=  1.03E+01 peak memory=       191 mb
 parameter: t1              =    3.31E-09
 output: tsu_b_01.tr0
 sweep: tran tran32   begin, stop_t=  8.00E-09 #sweeps=8001 cpu clock=  1.04E+01
 tran: time= 8.8861E-10 tot_iter=      14 conv_iter=       7 cpu clock= 1.04E+01
 tran: time= 1.6050E-09 tot_iter=     871 conv_iter=     170 cpu clock= 1.04E+01
 tran: time= 2.4041E-09 tot_iter=    1179 conv_iter=     247 cpu clock= 1.04E+01
 tran: time= 3.2086E-09 tot_iter=    1786 conv_iter=     368 cpu clock= 1.05E+01
 tran: time= 4.0139E-09 tot_iter=    2439 conv_iter=     501 cpu clock= 1.05E+01
 tran: time= 4.8084E-09 tot_iter=    2894 conv_iter=     612 cpu clock= 1.05E+01
 tran: time= 5.6004E-09 tot_iter=    3686 conv_iter=     772 cpu clock= 1.06E+01
 tran: time= 6.4067E-09 tot_iter=    4001 conv_iter=     846 cpu clock= 1.06E+01
 tran: time= 7.2023E-09 tot_iter=    4642 conv_iter=     982 cpu clock= 1.06E+01
 tran: time= 8.0000E-09 tot_iter=    5059 conv_iter=    1070 cpu clock= 1.07E+01
 sweep: tran tran32   end,  cpu clock=  1.07E+01 peak memory=       191 mb
 parameter: t1              =    3.32E-09
 output: tsu_b_01.tr0
 sweep: tran tran33   begin, stop_t=  8.00E-09 #sweeps=8001 cpu clock=  1.07E+01
 tran: time= 8.8861E-10 tot_iter=      14 conv_iter=       7 cpu clock= 1.07E+01
 tran: time= 1.6050E-09 tot_iter=     871 conv_iter=     170 cpu clock= 1.07E+01
 tran: time= 2.4041E-09 tot_iter=    1179 conv_iter=     247 cpu clock= 1.08E+01
 tran: time= 3.2086E-09 tot_iter=    1786 conv_iter=     368 cpu clock= 1.08E+01
 tran: time= 4.0043E-09 tot_iter=    2461 conv_iter=     504 cpu clock= 1.08E+01
 tran: time= 4.8074E-09 tot_iter=    2930 conv_iter=     619 cpu clock= 1.09E+01
 tran: time= 5.6045E-09 tot_iter=    3711 conv_iter=     774 cpu clock= 1.09E+01
 tran: time= 6.4031E-09 tot_iter=    4014 conv_iter=     848 cpu clock= 1.09E+01
 tran: time= 7.2103E-09 tot_iter=    4604 conv_iter=     975 cpu clock= 1.09E+01
 tran: time= 8.0000E-09 tot_iter=    4971 conv_iter=    1056 cpu clock= 1.10E+01
 sweep: tran tran33   end,  cpu clock=  1.10E+01 peak memory=       191 mb
 parameter: t1              =    3.33E-09
 output: tsu_b_01.tr0
 sweep: tran tran34   begin, stop_t=  8.00E-09 #sweeps=8001 cpu clock=  1.10E+01
 tran: time= 8.8861E-10 tot_iter=      14 conv_iter=       7 cpu clock= 1.10E+01
 tran: time= 1.6050E-09 tot_iter=     871 conv_iter=     170 cpu clock= 1.10E+01
 tran: time= 2.4041E-09 tot_iter=    1179 conv_iter=     247 cpu clock= 1.11E+01
 tran: time= 3.2086E-09 tot_iter=    1786 conv_iter=     368 cpu clock= 1.11E+01
 tran: time= 4.0173E-09 tot_iter=    2451 conv_iter=     501 cpu clock= 1.11E+01
 tran: time= 4.8083E-09 tot_iter=    2893 conv_iter=     608 cpu clock= 1.12E+01
 tran: time= 5.6041E-09 tot_iter=    3721 conv_iter=     771 cpu clock= 1.12E+01
 tran: time= 6.4027E-09 tot_iter=    4017 conv_iter=     844 cpu clock= 1.12E+01
 tran: time= 7.2068E-09 tot_iter=    4615 conv_iter=     971 cpu clock= 1.13E+01
 tran: time= 8.0000E-09 tot_iter=    5073 conv_iter=    1068 cpu clock= 1.13E+01
 sweep: tran tran34   end,  cpu clock=  1.13E+01 peak memory=       191 mb
 parameter: t1              =    3.34E-09
 output: tsu_b_01.tr0
 sweep: tran tran35   begin, stop_t=  8.00E-09 #sweeps=8001 cpu clock=  1.13E+01
 tran: time= 8.8861E-10 tot_iter=      14 conv_iter=       7 cpu clock= 1.13E+01
 tran: time= 1.6050E-09 tot_iter=     871 conv_iter=     170 cpu clock= 1.13E+01
 tran: time= 2.4041E-09 tot_iter=    1179 conv_iter=     247 cpu clock= 1.14E+01
 tran: time= 3.2086E-09 tot_iter=    1786 conv_iter=     368 cpu clock= 1.14E+01
 tran: time= 4.0106E-09 tot_iter=    2433 conv_iter=     499 cpu clock= 1.14E+01
 tran: time= 4.8092E-09 tot_iter=    2879 conv_iter=     608 cpu clock= 1.15E+01
 tran: time= 5.6045E-09 tot_iter=    3672 conv_iter=     769 cpu clock= 1.15E+01
 tran: time= 6.4031E-09 tot_iter=    3975 conv_iter=     843 cpu clock= 1.15E+01
 tran: time= 7.2100E-09 tot_iter=    4561 conv_iter=     970 cpu clock= 1.16E+01
 tran: time= 8.0000E-09 tot_iter=    4934 conv_iter=    1053 cpu clock= 1.16E+01
 sweep: tran tran35   end,  cpu clock=  1.16E+01 peak memory=       191 mb
 parameter: t1              =    3.35E-09
 output: tsu_b_01.tr0
 sweep: tran tran36   begin, stop_t=  8.00E-09 #sweeps=8001 cpu clock=  1.16E+01
 tran: time= 8.8861E-10 tot_iter=      14 conv_iter=       7 cpu clock= 1.16E+01
 tran: time= 1.6050E-09 tot_iter=     871 conv_iter=     170 cpu clock= 1.17E+01
 tran: time= 2.4041E-09 tot_iter=    1179 conv_iter=     247 cpu clock= 1.17E+01
 tran: time= 3.2086E-09 tot_iter=    1786 conv_iter=     368 cpu clock= 1.17E+01
 tran: time= 4.0500E-09 tot_iter=    2462 conv_iter=     504 cpu clock= 1.18E+01
 tran: time= 4.8451E-09 tot_iter=    2902 conv_iter=     613 cpu clock= 1.18E+01
 tran: time= 5.6004E-09 tot_iter=    3599 conv_iter=     753 cpu clock= 1.18E+01
 tran: time= 6.4067E-09 tot_iter=    3913 conv_iter=     827 cpu clock= 1.18E+01
 tran: time= 7.2090E-09 tot_iter=    4548 conv_iter=     963 cpu clock= 1.19E+01
 tran: time= 8.0000E-09 tot_iter=    4981 conv_iter=    1056 cpu clock= 1.19E+01
 sweep: tran tran36   end,  cpu clock=  1.19E+01 peak memory=       191 mb
 parameter: t1              =    3.36E-09
 output: tsu_b_01.tr0
 sweep: tran tran37   begin, stop_t=  8.00E-09 #sweeps=8001 cpu clock=  1.19E+01
 tran: time= 8.8861E-10 tot_iter=      14 conv_iter=       7 cpu clock= 1.19E+01
 tran: time= 1.6050E-09 tot_iter=     871 conv_iter=     170 cpu clock= 1.20E+01
 tran: time= 2.4041E-09 tot_iter=    1179 conv_iter=     247 cpu clock= 1.20E+01
 tran: time= 3.2086E-09 tot_iter=    1786 conv_iter=     368 cpu clock= 1.20E+01
 tran: time= 4.0284E-09 tot_iter=    2466 conv_iter=     504 cpu clock= 1.21E+01
 tran: time= 4.8455E-09 tot_iter=    2942 conv_iter=     620 cpu clock= 1.21E+01
 tran: time= 5.6001E-09 tot_iter=    3639 conv_iter=     766 cpu clock= 1.21E+01
 tran: time= 6.4066E-09 tot_iter=    3955 conv_iter=     840 cpu clock= 1.22E+01
 tran: time= 7.2051E-09 tot_iter=    4598 conv_iter=     976 cpu clock= 1.22E+01
 tran: time= 8.0000E-09 tot_iter=    5030 conv_iter=    1069 cpu clock= 1.22E+01
 sweep: tran tran37   end,  cpu clock=  1.22E+01 peak memory=       191 mb
 parameter: t1              =    3.37E-09
 output: tsu_b_01.tr0
 sweep: tran tran38   begin, stop_t=  8.00E-09 #sweeps=8001 cpu clock=  1.22E+01
 tran: time= 8.8861E-10 tot_iter=      14 conv_iter=       7 cpu clock= 1.22E+01
 tran: time= 1.6050E-09 tot_iter=     871 conv_iter=     170 cpu clock= 1.23E+01
 tran: time= 2.4041E-09 tot_iter=    1179 conv_iter=     247 cpu clock= 1.23E+01
 tran: time= 3.2086E-09 tot_iter=    1786 conv_iter=     368 cpu clock= 1.23E+01
 tran: time= 4.0095E-09 tot_iter=    2462 conv_iter=     504 cpu clock= 1.24E+01
 tran: time= 4.8504E-09 tot_iter=    2918 conv_iter=     615 cpu clock= 1.24E+01
 tran: time= 5.6064E-09 tot_iter=    3656 conv_iter=     766 cpu clock= 1.25E+01
 tran: time= 6.4032E-09 tot_iter=    3953 conv_iter=     838 cpu clock= 1.25E+01
 tran: time= 7.2099E-09 tot_iter=    4536 conv_iter=     965 cpu clock= 1.25E+01
 tran: time= 8.0000E-09 tot_iter=    4911 conv_iter=    1048 cpu clock= 1.25E+01
 sweep: tran tran38   end,  cpu clock=  1.25E+01 peak memory=       191 mb
 parameter: t1              =    3.38E-09
 output: tsu_b_01.tr0
 sweep: tran tran39   begin, stop_t=  8.00E-09 #sweeps=8001 cpu clock=  1.25E+01
 tran: time= 8.8861E-10 tot_iter=      14 conv_iter=       7 cpu clock= 1.25E+01
 tran: time= 1.6050E-09 tot_iter=     871 conv_iter=     170 cpu clock= 1.26E+01
 tran: time= 2.4041E-09 tot_iter=    1179 conv_iter=     247 cpu clock= 1.26E+01
 tran: time= 3.2086E-09 tot_iter=    1786 conv_iter=     368 cpu clock= 1.27E+01
 tran: time= 4.0404E-09 tot_iter=    2470 conv_iter=     506 cpu clock= 1.27E+01
 tran: time= 4.8085E-09 tot_iter=    2935 conv_iter=     618 cpu clock= 1.27E+01
 tran: time= 5.6043E-09 tot_iter=    3756 conv_iter=     782 cpu clock= 1.28E+01
 tran: time= 6.4042E-09 tot_iter=    4061 conv_iter=     855 cpu clock= 1.28E+01
 tran: time= 7.2021E-09 tot_iter=    4658 conv_iter=     982 cpu clock= 1.28E+01
 tran: time= 8.0000E-09 tot_iter=    5022 conv_iter=    1062 cpu clock= 1.28E+01
 sweep: tran tran39   end,  cpu clock=  1.28E+01 peak memory=       191 mb
 parameter: t1              =    3.39E-09
 output: tsu_b_01.tr0
 sweep: tran tran40   begin, stop_t=  8.00E-09 #sweeps=8001 cpu clock=  1.28E+01
 tran: time= 8.8861E-10 tot_iter=      14 conv_iter=       7 cpu clock= 1.28E+01
 tran: time= 1.6050E-09 tot_iter=     871 conv_iter=     170 cpu clock= 1.29E+01
 tran: time= 2.4041E-09 tot_iter=    1179 conv_iter=     247 cpu clock= 1.29E+01
 tran: time= 3.2086E-09 tot_iter=    1786 conv_iter=     368 cpu clock= 1.30E+01
 tran: time= 4.0413E-09 tot_iter=    2445 conv_iter=     504 cpu clock= 1.30E+01
 tran: time= 4.8060E-09 tot_iter=    2929 conv_iter=     619 cpu clock= 1.30E+01
 tran: time= 5.6045E-09 tot_iter=    3673 conv_iter=     769 cpu clock= 1.31E+01
 tran: time= 6.4078E-09 tot_iter=    3982 conv_iter=     841 cpu clock= 1.31E+01
 tran: time= 7.2022E-09 tot_iter=    4583 conv_iter=     969 cpu clock= 1.31E+01
 tran: time= 8.0000E-09 tot_iter=    4999 conv_iter=    1057 cpu clock= 1.32E+01
 sweep: tran tran40   end,  cpu clock=  1.32E+01 peak memory=       191 mb
 parameter: t1              =    3.40E-09
 output: tsu_b_01.tr0
 sweep: tran tran41   begin, stop_t=  8.00E-09 #sweeps=8001 cpu clock=  1.32E+01
 tran: time= 8.8861E-10 tot_iter=      14 conv_iter=       7 cpu clock= 1.32E+01
 tran: time= 1.6050E-09 tot_iter=     871 conv_iter=     170 cpu clock= 1.32E+01
 tran: time= 2.4041E-09 tot_iter=    1179 conv_iter=     247 cpu clock= 1.32E+01
 tran: time= 3.2086E-09 tot_iter=    1786 conv_iter=     368 cpu clock= 1.33E+01
 tran: time= 4.0040E-09 tot_iter=    2377 conv_iter=     486 cpu clock= 1.33E+01
 tran: time= 4.8075E-09 tot_iter=    2913 conv_iter=     605 cpu clock= 1.33E+01
 tran: time= 5.6003E-09 tot_iter=    3630 conv_iter=     751 cpu clock= 1.34E+01
 tran: time= 6.4068E-09 tot_iter=    3946 conv_iter=     825 cpu clock= 1.34E+01
 tran: time= 7.2021E-09 tot_iter=    4585 conv_iter=     961 cpu clock= 1.34E+01
 tran: time= 8.0000E-09 tot_iter=    5002 conv_iter=    1049 cpu clock= 1.35E+01
 sweep: tran tran41   end,  cpu clock=  1.35E+01 peak memory=       191 mb
 parameter: t1              =    3.41E-09
 output: tsu_b_01.tr0
 sweep: tran tran42   begin, stop_t=  8.00E-09 #sweeps=8001 cpu clock=  1.35E+01
 tran: time= 8.8861E-10 tot_iter=      14 conv_iter=       7 cpu clock= 1.35E+01
 tran: time= 1.6050E-09 tot_iter=     871 conv_iter=     170 cpu clock= 1.35E+01
 tran: time= 2.4041E-09 tot_iter=    1179 conv_iter=     247 cpu clock= 1.35E+01
 tran: time= 3.2086E-09 tot_iter=    1786 conv_iter=     368 cpu clock= 1.36E+01
 tran: time= 4.0082E-09 tot_iter=    2323 conv_iter=     478 cpu clock= 1.36E+01
 tran: time= 4.8435E-09 tot_iter=    2828 conv_iter=     588 cpu clock= 1.37E+01
 tran: time= 5.6040E-09 tot_iter=    3766 conv_iter=     773 cpu clock= 1.37E+01
 tran: time= 6.4045E-09 tot_iter=    4062 conv_iter=     847 cpu clock= 1.37E+01
 tran: time= 7.2023E-09 tot_iter=    4666 conv_iter=     974 cpu clock= 1.38E+01
 tran: time= 8.0000E-09 tot_iter=    5033 conv_iter=    1054 cpu clock= 1.38E+01
 sweep: tran tran42   end,  cpu clock=  1.38E+01 peak memory=       191 mb
 parameter: t1              =    3.42E-09
 output: tsu_b_01.tr0
 sweep: tran tran43   begin, stop_t=  8.00E-09 #sweeps=8001 cpu clock=  1.38E+01
 tran: time= 8.8861E-10 tot_iter=      14 conv_iter=       7 cpu clock= 1.38E+01
 tran: time= 1.6050E-09 tot_iter=     871 conv_iter=     170 cpu clock= 1.38E+01
 tran: time= 2.4041E-09 tot_iter=    1179 conv_iter=     247 cpu clock= 1.39E+01
 tran: time= 3.2086E-09 tot_iter=    1786 conv_iter=     368 cpu clock= 1.39E+01
 tran: time= 4.0102E-09 tot_iter=    2449 conv_iter=     502 cpu clock= 1.39E+01
 tran: time= 4.8084E-09 tot_iter=    2877 conv_iter=     606 cpu clock= 1.40E+01
 tran: time= 5.6040E-09 tot_iter=    3846 conv_iter=     799 cpu clock= 1.40E+01
 tran: time= 6.4105E-09 tot_iter=    4138 conv_iter=     872 cpu clock= 1.41E+01
 tran: time= 7.2097E-09 tot_iter=    4751 conv_iter=     997 cpu clock= 1.41E+01
 tran: time= 8.0000E-09 tot_iter=    5124 conv_iter=    1080 cpu clock= 1.41E+01
 sweep: tran tran43   end,  cpu clock=  1.41E+01 peak memory=       191 mb
 parameter: t1              =    3.43E-09
 output: tsu_b_01.tr0
 sweep: tran tran44   begin, stop_t=  8.00E-09 #sweeps=8001 cpu clock=  1.41E+01
 tran: time= 8.8861E-10 tot_iter=      14 conv_iter=       7 cpu clock= 1.41E+01
 tran: time= 1.6050E-09 tot_iter=     871 conv_iter=     170 cpu clock= 1.42E+01
 tran: time= 2.4041E-09 tot_iter=    1179 conv_iter=     247 cpu clock= 1.42E+01
 tran: time= 3.2086E-09 tot_iter=    1786 conv_iter=     368 cpu clock= 1.42E+01
 tran: time= 4.0340E-09 tot_iter=    2357 conv_iter=     491 cpu clock= 1.43E+01
 tran: time= 4.8071E-09 tot_iter=    2844 conv_iter=     607 cpu clock= 1.43E+01
 tran: time= 5.6066E-09 tot_iter=    3718 conv_iter=     782 cpu clock= 1.43E+01
 tran: time= 6.4010E-09 tot_iter=    4015 conv_iter=     856 cpu clock= 1.44E+01
 tran: time= 7.2101E-09 tot_iter=    4588 conv_iter=     978 cpu clock= 1.44E+01
 tran: time= 8.0000E-09 tot_iter=    4959 conv_iter=    1059 cpu clock= 1.44E+01
 sweep: tran tran44   end,  cpu clock=  1.44E+01 peak memory=       191 mb
 parameter: t1              =    3.44E-09
 output: tsu_b_01.tr0
 sweep: tran tran45   begin, stop_t=  8.00E-09 #sweeps=8001 cpu clock=  1.44E+01
 tran: time= 8.8861E-10 tot_iter=      14 conv_iter=       7 cpu clock= 1.44E+01
 tran: time= 1.6050E-09 tot_iter=     871 conv_iter=     170 cpu clock= 1.45E+01
 tran: time= 2.4041E-09 tot_iter=    1179 conv_iter=     247 cpu clock= 1.45E+01
 tran: time= 3.2086E-09 tot_iter=    1786 conv_iter=     368 cpu clock= 1.45E+01
 tran: time= 4.0008E-09 tot_iter=    2303 conv_iter=     478 cpu clock= 1.46E+01
 tran: time= 4.8424E-09 tot_iter=    2766 conv_iter=     590 cpu clock= 1.46E+01
 tran: time= 5.6066E-09 tot_iter=    3683 conv_iter=     773 cpu clock= 1.47E+01
 tran: time= 6.4034E-09 tot_iter=    3974 conv_iter=     848 cpu clock= 1.47E+01
 tran: time= 7.2104E-09 tot_iter=    4559 conv_iter=     973 cpu clock= 1.47E+01
 tran: time= 8.0000E-09 tot_iter=    4929 conv_iter=    1054 cpu clock= 1.47E+01
 sweep: tran tran45   end,  cpu clock=  1.47E+01 peak memory=       191 mb
 parameter: t1              =    3.45E-09
 output: tsu_b_01.tr0
 sweep: tran tran46   begin, stop_t=  8.00E-09 #sweeps=8001 cpu clock=  1.47E+01
 tran: time= 8.8861E-10 tot_iter=      14 conv_iter=       7 cpu clock= 1.47E+01
 tran: time= 1.6050E-09 tot_iter=     871 conv_iter=     170 cpu clock= 1.48E+01
 tran: time= 2.4041E-09 tot_iter=    1179 conv_iter=     247 cpu clock= 1.48E+01
 tran: time= 3.2086E-09 tot_iter=    1786 conv_iter=     368 cpu clock= 1.48E+01
 tran: time= 4.0014E-09 tot_iter=    2300 conv_iter=     476 cpu clock= 1.49E+01
 tran: time= 4.8143E-09 tot_iter=    2738 conv_iter=     581 cpu clock= 1.49E+01
 tran: time= 5.6065E-09 tot_iter=    3576 conv_iter=     747 cpu clock= 1.49E+01
 tran: time= 6.4034E-09 tot_iter=    3867 conv_iter=     822 cpu clock= 1.50E+01
 tran: time= 7.2104E-09 tot_iter=    4452 conv_iter=     947 cpu clock= 1.50E+01
 tran: time= 8.0000E-09 tot_iter=    4822 conv_iter=    1028 cpu clock= 1.50E+01
 sweep: tran tran46   end,  cpu clock=  1.50E+01 peak memory=       191 mb
 parameter: t1              =    3.46E-09
 output: tsu_b_01.tr0
 sweep: tran tran47   begin, stop_t=  8.00E-09 #sweeps=8001 cpu clock=  1.50E+01
 tran: time= 8.8861E-10 tot_iter=      14 conv_iter=       7 cpu clock= 1.50E+01
 tran: time= 1.6050E-09 tot_iter=     871 conv_iter=     170 cpu clock= 1.51E+01
 tran: time= 2.4041E-09 tot_iter=    1179 conv_iter=     247 cpu clock= 1.51E+01
 tran: time= 3.2086E-09 tot_iter=    1786 conv_iter=     368 cpu clock= 1.51E+01
 tran: time= 4.0500E-09 tot_iter=    2308 conv_iter=     479 cpu clock= 1.52E+01
 tran: time= 4.8084E-09 tot_iter=    2802 conv_iter=     596 cpu clock= 1.52E+01
 tran: time= 5.6052E-09 tot_iter=    3665 conv_iter=     768 cpu clock= 1.53E+01
 tran: time= 6.4038E-09 tot_iter=    3990 conv_iter=     847 cpu clock= 1.53E+01
 tran: time= 7.2005E-09 tot_iter=    4556 conv_iter=     965 cpu clock= 1.53E+01
 tran: time= 8.0000E-09 tot_iter=    4998 conv_iter=    1059 cpu clock= 1.54E+01
 sweep: tran tran47   end,  cpu clock=  1.54E+01 peak memory=       191 mb
 parameter: t1              =    3.47E-09
 output: tsu_b_01.tr0
 sweep: tran tran48   begin, stop_t=  8.00E-09 #sweeps=8001 cpu clock=  1.54E+01
 tran: time= 8.8861E-10 tot_iter=      14 conv_iter=       7 cpu clock= 1.54E+01
 tran: time= 1.6050E-09 tot_iter=     871 conv_iter=     170 cpu clock= 1.54E+01
 tran: time= 2.4041E-09 tot_iter=    1179 conv_iter=     247 cpu clock= 1.54E+01
 tran: time= 3.2086E-09 tot_iter=    1786 conv_iter=     368 cpu clock= 1.55E+01
 tran: time= 4.0349E-09 tot_iter=    2303 conv_iter=     477 cpu clock= 1.55E+01
 tran: time= 4.8435E-09 tot_iter=    2739 conv_iter=     583 cpu clock= 1.55E+01
 tran: time= 5.6071E-09 tot_iter=    3747 conv_iter=     784 cpu clock= 1.56E+01
 tran: time= 6.4078E-09 tot_iter=    4076 conv_iter=     863 cpu clock= 1.56E+01
 tran: time= 7.2043E-09 tot_iter=    4703 conv_iter=     995 cpu clock= 1.57E+01
 tran: time= 8.0000E-09 tot_iter=    5060 conv_iter=    1072 cpu clock= 1.57E+01
 sweep: tran tran48   end,  cpu clock=  1.57E+01 peak memory=       191 mb
 parameter: t1              =    3.48E-09
 output: tsu_b_01.tr0
 sweep: tran tran49   begin, stop_t=  8.00E-09 #sweeps=8001 cpu clock=  1.57E+01
 tran: time= 8.8861E-10 tot_iter=      14 conv_iter=       7 cpu clock= 1.57E+01
 tran: time= 1.6050E-09 tot_iter=     871 conv_iter=     170 cpu clock= 1.57E+01
 tran: time= 2.4041E-09 tot_iter=    1179 conv_iter=     247 cpu clock= 1.58E+01
 tran: time= 3.2086E-09 tot_iter=    1786 conv_iter=     368 cpu clock= 1.58E+01
 tran: time= 4.0365E-09 tot_iter=    2279 conv_iter=     472 cpu clock= 1.58E+01
 tran: time= 4.8436E-09 tot_iter=    2720 conv_iter=     578 cpu clock= 1.58E+01
 tran: time= 5.6040E-09 tot_iter=    3695 conv_iter=     771 cpu clock= 1.59E+01
 tran: time= 6.4045E-09 tot_iter=    3991 conv_iter=     845 cpu clock= 1.59E+01
 tran: time= 7.2091E-09 tot_iter=    4598 conv_iter=     973 cpu clock= 1.60E+01
 tran: time= 8.0000E-09 tot_iter=    4960 conv_iter=    1053 cpu clock= 1.60E+01
 sweep: tran tran49   end,  cpu clock=  1.60E+01 peak memory=       191 mb
 parameter: t1              =    3.49E-09
 output: tsu_b_01.tr0
 sweep: tran tran50   begin, stop_t=  8.00E-09 #sweeps=8001 cpu clock=  1.60E+01
 tran: time= 8.8861E-10 tot_iter=      14 conv_iter=       7 cpu clock= 1.60E+01
 tran: time= 1.6050E-09 tot_iter=     871 conv_iter=     170 cpu clock= 1.61E+01
 tran: time= 2.4041E-09 tot_iter=    1179 conv_iter=     247 cpu clock= 1.61E+01
 tran: time= 3.2086E-09 tot_iter=    1786 conv_iter=     368 cpu clock= 1.61E+01
 tran: time= 4.0336E-09 tot_iter=    2303 conv_iter=     474 cpu clock= 1.61E+01
 tran: time= 4.8265E-09 tot_iter=    2733 conv_iter=     577 cpu clock= 1.62E+01
 tran: time= 5.6068E-09 tot_iter=    3619 conv_iter=     756 cpu clock= 1.62E+01
 tran: time= 6.4036E-09 tot_iter=    3912 conv_iter=     831 cpu clock= 1.62E+01
 tran: time= 7.2101E-09 tot_iter=    4498 conv_iter=     956 cpu clock= 1.63E+01
 tran: time= 8.0000E-09 tot_iter=    4869 conv_iter=    1037 cpu clock= 1.63E+01
 sweep: tran tran50   end,  cpu clock=  1.63E+01 peak memory=       191 mb
 parameter: t1              =    3.50E-09
 output: tsu_b_01.tr0
 sweep: tran tran51   begin, stop_t=  8.00E-09 #sweeps=8001 cpu clock=  1.63E+01
 tran: time= 8.8861E-10 tot_iter=      14 conv_iter=       7 cpu clock= 1.63E+01
 tran: time= 1.6050E-09 tot_iter=     871 conv_iter=     170 cpu clock= 1.64E+01
 tran: time= 2.4041E-09 tot_iter=    1179 conv_iter=     247 cpu clock= 1.64E+01
 tran: time= 3.2086E-09 tot_iter=    1786 conv_iter=     368 cpu clock= 1.64E+01
 tran: time= 4.0167E-09 tot_iter=    2351 conv_iter=     478 cpu clock= 1.64E+01
 tran: time= 4.8513E-09 tot_iter=    2818 conv_iter=     591 cpu clock= 1.65E+01
 tran: time= 5.6002E-09 tot_iter=    3764 conv_iter=     780 cpu clock= 1.65E+01
 tran: time= 6.4068E-09 tot_iter=    4070 conv_iter=     856 cpu clock= 1.66E+01
 tran: time= 7.2062E-09 tot_iter=    4720 conv_iter=     991 cpu clock= 1.66E+01
 tran: time= 8.0000E-09 tot_iter=    5179 conv_iter=    1088 cpu clock= 1.66E+01
 sweep: tran tran51   end,  cpu clock=  1.66E+01 peak memory=       191 mb
 sweep: parameter       parameter       1 end
>info:         ***** hspice job concluded
 init: begin read circuit files,  cpu clock=  1.66E+01
       option search = /usr/local/packages/synopsys_2015/hspice/hspice/
                         parts/ad
       option search = /usr/local/packages/synopsys_2015/hspice/hspice/
                         parts/ad
       option search = /usr/local/packages/synopsys_2015/hspice/hspice/
                         parts/behave
       option search = /usr/local/packages/synopsys_2015/hspice/hspice/
                         parts/bjt
       option search = /usr/local/packages/synopsys_2015/hspice/hspice/
                         parts/burr_brn
       option search = /usr/local/packages/synopsys_2015/hspice/hspice/
                         parts/comlinear
       option search = /usr/local/packages/synopsys_2015/hspice/hspice/
                         parts/dio
       option search = /usr/local/packages/synopsys_2015/hspice/hspice/
                         parts/fet
       option search = /usr/local/packages/synopsys_2015/hspice/hspice/
                         parts/lin_tech
       option search = /usr/local/packages/synopsys_2015/hspice/hspice/
                         parts/pci
       option search = /usr/local/packages/synopsys_2015/hspice/hspice/
                         parts/signet
       option search = /usr/local/packages/synopsys_2015/hspice/hspice/
                         parts/ti
       option search = /usr/local/packages/synopsys_2015/hspice/hspice/
                         parts/tline
       option search = /usr/local/packages/synopsys_2015/hspice/hspice/
                         parts/xilinx
       option runlvl
       option runlvl =     6.00
       option post
 init: end read circuit files,  cpu clock=  1.66E+01 peak memory=       191 mb
 init: begin check errors,  cpu clock=  1.66E+01
 init: end check errors,  cpu clock=  1.66E+01 peak memory=       191 mb
 init: begin setup matrix, pivot=     0 cpu clock=  1.66E+01
       establish matrix -- done,  cpu clock=  1.66E+01 peak memory=       191 mb
       re-order matrix -- done,  cpu clock=  1.66E+01 peak memory=       191 mb
 init: end setup matrix,  cpu clock=  1.66E+01 peak memory=       191 mb
 sweep: parameter       parameter1       begin, #sweeps =  51
 parameter: t1              =    3.00E-09
 dcop: begin dcop,  cpu clock=  1.66E+01
 dcop: end dcop,  cpu clock=  1.66E+01 peak memory=       191 mb  tot_iter=       8
 output: tsu_b_01.tr1
 sweep: tran tran1    begin, stop_t=  8.00E-09 #sweeps=8001 cpu clock=  1.66E+01
 tran: time= 8.8861E-10 tot_iter=      14 conv_iter=       7 cpu clock= 1.66E+01
 tran: time= 1.6567E-09 tot_iter=     842 conv_iter=     178 cpu clock= 1.67E+01
 tran: time= 2.4001E-09 tot_iter=    1206 conv_iter=     270 cpu clock= 1.67E+01
 tran: time= 3.2008E-09 tot_iter=    1862 conv_iter=     402 cpu clock= 1.68E+01
 tran: time= 4.0365E-09 tot_iter=    2215 conv_iter=     483 cpu clock= 1.68E+01
 tran: time= 4.8620E-09 tot_iter=    2623 conv_iter=     585 cpu clock= 1.68E+01
 tran: time= 5.6345E-09 tot_iter=    3403 conv_iter=     753 cpu clock= 1.69E+01
 tran: time= 6.4091E-09 tot_iter=    3860 conv_iter=     863 cpu clock= 1.69E+01
 tran: time= 7.2053E-09 tot_iter=    4314 conv_iter=     964 cpu clock= 1.69E+01
 tran: time= 8.0000E-09 tot_iter=    4662 conv_iter=    1040 cpu clock= 1.69E+01
 sweep: tran tran1    end,  cpu clock=  1.69E+01 peak memory=       191 mb
 parameter: t1              =    3.01E-09
 output: tsu_b_01.tr1
 sweep: tran tran2    begin, stop_t=  8.00E-09 #sweeps=8001 cpu clock=  1.69E+01
 tran: time= 8.8861E-10 tot_iter=      14 conv_iter=       7 cpu clock= 1.69E+01
 tran: time= 1.6567E-09 tot_iter=     842 conv_iter=     178 cpu clock= 1.70E+01
 tran: time= 2.4001E-09 tot_iter=    1206 conv_iter=     270 cpu clock= 1.70E+01
 tran: time= 3.2004E-09 tot_iter=    1839 conv_iter=     396 cpu clock= 1.71E+01
 tran: time= 4.0500E-09 tot_iter=    2151 conv_iter=     468 cpu clock= 1.71E+01
 tran: time= 4.8488E-09 tot_iter=    2579 conv_iter=     573 cpu clock= 1.71E+01
 tran: time= 5.6439E-09 tot_iter=    3350 conv_iter=     743 cpu clock= 1.72E+01
 tran: time= 6.4138E-09 tot_iter=    3761 conv_iter=     844 cpu clock= 1.72E+01
 tran: time= 7.2027E-09 tot_iter=    4221 conv_iter=     947 cpu clock= 1.72E+01
 tran: time= 8.0000E-09 tot_iter=    4569 conv_iter=    1022 cpu clock= 1.72E+01
 sweep: tran tran2    end,  cpu clock=  1.72E+01 peak memory=       191 mb
 parameter: t1              =    3.02E-09
 output: tsu_b_01.tr1
 sweep: tran tran3    begin, stop_t=  8.00E-09 #sweeps=8001 cpu clock=  1.72E+01
 tran: time= 8.8861E-10 tot_iter=      14 conv_iter=       7 cpu clock= 1.72E+01
 tran: time= 1.6567E-09 tot_iter=     842 conv_iter=     178 cpu clock= 1.73E+01
 tran: time= 2.4001E-09 tot_iter=    1206 conv_iter=     270 cpu clock= 1.73E+01
 tran: time= 3.2030E-09 tot_iter=    1875 conv_iter=     407 cpu clock= 1.74E+01
 tran: time= 4.0500E-09 tot_iter=    2198 conv_iter=     480 cpu clock= 1.74E+01
 tran: time= 4.8613E-09 tot_iter=    2631 conv_iter=     586 cpu clock= 1.74E+01
 tran: time= 5.6377E-09 tot_iter=    3377 conv_iter=     751 cpu clock= 1.75E+01
 tran: time= 6.4138E-09 tot_iter=    3806 conv_iter=     856 cpu clock= 1.75E+01
 tran: time= 7.2078E-09 tot_iter=    4269 conv_iter=     960 cpu clock= 1.75E+01
 tran: time= 8.0000E-09 tot_iter=    4616 conv_iter=    1035 cpu clock= 1.76E+01
 sweep: tran tran3    end,  cpu clock=  1.76E+01 peak memory=       191 mb
 parameter: t1              =    3.03E-09
 output: tsu_b_01.tr1
 sweep: tran tran4    begin, stop_t=  8.00E-09 #sweeps=8001 cpu clock=  1.76E+01
 tran: time= 8.8861E-10 tot_iter=      14 conv_iter=       7 cpu clock= 1.76E+01
 tran: time= 1.6567E-09 tot_iter=     842 conv_iter=     178 cpu clock= 1.76E+01
 tran: time= 2.4001E-09 tot_iter=    1206 conv_iter=     270 cpu clock= 1.76E+01
 tran: time= 3.2023E-09 tot_iter=    1958 conv_iter=     413 cpu clock= 1.77E+01
 tran: time= 4.0121E-09 tot_iter=    2277 conv_iter=     486 cpu clock= 1.77E+01
 tran: time= 4.8649E-09 tot_iter=    2712 conv_iter=     594 cpu clock= 1.77E+01
 tran: time= 5.6471E-09 tot_iter=    3521 conv_iter=     770 cpu clock= 1.78E+01
 tran: time= 6.4246E-09 tot_iter=    3906 conv_iter=     863 cpu clock= 1.78E+01
 tran: time= 7.2063E-09 tot_iter=    4362 conv_iter=     966 cpu clock= 1.78E+01
 tran: time= 8.0000E-09 tot_iter=    4664 conv_iter=    1034 cpu clock= 1.79E+01
 sweep: tran tran4    end,  cpu clock=  1.79E+01 peak memory=       191 mb
 parameter: t1              =    3.04E-09
 output: tsu_b_01.tr1
 sweep: tran tran5    begin, stop_t=  8.00E-09 #sweeps=8001 cpu clock=  1.79E+01
 tran: time= 8.8861E-10 tot_iter=      14 conv_iter=       7 cpu clock= 1.79E+01
 tran: time= 1.6567E-09 tot_iter=     842 conv_iter=     178 cpu clock= 1.79E+01
 tran: time= 2.4001E-09 tot_iter=    1206 conv_iter=     270 cpu clock= 1.79E+01
 tran: time= 3.2021E-09 tot_iter=    1919 conv_iter=     410 cpu clock= 1.80E+01
 tran: time= 4.0500E-09 tot_iter=    2228 conv_iter=     482 cpu clock= 1.80E+01
 tran: time= 4.8217E-09 tot_iter=    2663 conv_iter=     589 cpu clock= 1.80E+01
 tran: time= 5.6056E-09 tot_iter=    3439 conv_iter=     755 cpu clock= 1.81E+01
 tran: time= 6.4133E-09 tot_iter=    3901 conv_iter=     867 cpu clock= 1.81E+01
 tran: time= 7.2078E-09 tot_iter=    4364 conv_iter=     971 cpu clock= 1.81E+01
 tran: time= 8.0000E-09 tot_iter=    4711 conv_iter=    1046 cpu clock= 1.82E+01
 sweep: tran tran5    end,  cpu clock=  1.82E+01 peak memory=       191 mb
 parameter: t1              =    3.05E-09
 output: tsu_b_01.tr1
 sweep: tran tran6    begin, stop_t=  8.00E-09 #sweeps=8001 cpu clock=  1.82E+01
 tran: time= 8.8861E-10 tot_iter=      14 conv_iter=       7 cpu clock= 1.82E+01
 tran: time= 1.6567E-09 tot_iter=     842 conv_iter=     178 cpu clock= 1.82E+01
 tran: time= 2.4001E-09 tot_iter=    1206 conv_iter=     270 cpu clock= 1.82E+01
 tran: time= 3.2000E-09 tot_iter=    1937 conv_iter=     416 cpu clock= 1.83E+01
 tran: time= 4.0090E-09 tot_iter=    2238 conv_iter=     484 cpu clock= 1.83E+01
 tran: time= 4.8649E-09 tot_iter=    2673 conv_iter=     592 cpu clock= 1.83E+01
 tran: time= 5.6169E-09 tot_iter=    3456 conv_iter=     762 cpu clock= 1.84E+01
 tran: time= 6.4143E-09 tot_iter=    3885 conv_iter=     867 cpu clock= 1.84E+01
 tran: time= 7.2049E-09 tot_iter=    4357 conv_iter=     971 cpu clock= 1.84E+01
 tran: time= 8.0000E-09 tot_iter=    4698 conv_iter=    1046 cpu clock= 1.85E+01
 sweep: tran tran6    end,  cpu clock=  1.85E+01 peak memory=       191 mb
 parameter: t1              =    3.06E-09
 output: tsu_b_01.tr1
 sweep: tran tran7    begin, stop_t=  8.00E-09 #sweeps=8001 cpu clock=  1.85E+01
 tran: time= 8.8861E-10 tot_iter=      14 conv_iter=       7 cpu clock= 1.85E+01
 tran: time= 1.6567E-09 tot_iter=     842 conv_iter=     178 cpu clock= 1.85E+01
 tran: time= 2.4001E-09 tot_iter=    1206 conv_iter=     270 cpu clock= 1.86E+01
 tran: time= 3.2007E-09 tot_iter=    1973 conv_iter=     422 cpu clock= 1.86E+01
 tran: time= 4.0500E-09 tot_iter=    2293 conv_iter=     494 cpu clock= 1.86E+01
 tran: time= 4.8473E-09 tot_iter=    2736 conv_iter=     604 cpu clock= 1.86E+01
 tran: time= 5.6023E-09 tot_iter=    3473 conv_iter=     768 cpu clock= 1.87E+01
 tran: time= 6.4094E-09 tot_iter=    3878 conv_iter=     867 cpu clock= 1.87E+01
 tran: time= 7.2039E-09 tot_iter=    4347 conv_iter=     969 cpu clock= 1.88E+01
 tran: time= 8.0000E-09 tot_iter=    4698 conv_iter=    1046 cpu clock= 1.88E+01
 sweep: tran tran7    end,  cpu clock=  1.88E+01 peak memory=       191 mb
 parameter: t1              =    3.07E-09
 output: tsu_b_01.tr1
 sweep: tran tran8    begin, stop_t=  8.00E-09 #sweeps=8001 cpu clock=  1.88E+01
 tran: time= 8.8861E-10 tot_iter=      14 conv_iter=       7 cpu clock= 1.88E+01
 tran: time= 1.6567E-09 tot_iter=     842 conv_iter=     178 cpu clock= 1.88E+01
 tran: time= 2.4001E-09 tot_iter=    1206 conv_iter=     270 cpu clock= 1.89E+01
 tran: time= 3.2009E-09 tot_iter=    1993 conv_iter=     425 cpu clock= 1.89E+01
 tran: time= 4.0500E-09 tot_iter=    2323 conv_iter=     500 cpu clock= 1.89E+01
 tran: time= 4.8223E-09 tot_iter=    2731 conv_iter=     602 cpu clock= 1.89E+01
 tran: time= 5.6054E-09 tot_iter=    3519 conv_iter=     770 cpu clock= 1.90E+01
 tran: time= 6.4134E-09 tot_iter=    3980 conv_iter=     882 cpu clock= 1.90E+01
 tran: time= 7.2078E-09 tot_iter=    4443 conv_iter=     986 cpu clock= 1.91E+01
 tran: time= 8.0000E-09 tot_iter=    4742 conv_iter=    1053 cpu clock= 1.91E+01
 sweep: tran tran8    end,  cpu clock=  1.91E+01 peak memory=       191 mb
 parameter: t1              =    3.08E-09
 output: tsu_b_01.tr1
 sweep: tran tran9    begin, stop_t=  8.00E-09 #sweeps=8001 cpu clock=  1.91E+01
 tran: time= 8.8861E-10 tot_iter=      14 conv_iter=       7 cpu clock= 1.91E+01
 tran: time= 1.6567E-09 tot_iter=     842 conv_iter=     178 cpu clock= 1.91E+01
 tran: time= 2.4001E-09 tot_iter=    1206 conv_iter=     270 cpu clock= 1.92E+01
 tran: time= 3.2013E-09 tot_iter=    1952 conv_iter=     419 cpu clock= 1.92E+01
 tran: time= 4.0255E-09 tot_iter=    2290 conv_iter=     495 cpu clock= 1.92E+01
 tran: time= 4.8562E-09 tot_iter=    2706 conv_iter=     599 cpu clock= 1.93E+01
 tran: time= 5.6346E-09 tot_iter=    3486 conv_iter=     767 cpu clock= 1.93E+01
 tran: time= 6.4091E-09 tot_iter=    3943 conv_iter=     877 cpu clock= 1.93E+01
 tran: time= 7.2053E-09 tot_iter=    4397 conv_iter=     978 cpu clock= 1.94E+01
 tran: time= 8.0000E-09 tot_iter=    4745 conv_iter=    1054 cpu clock= 1.94E+01
 sweep: tran tran9    end,  cpu clock=  1.94E+01 peak memory=       191 mb
 parameter: t1              =    3.09E-09
 output: tsu_b_01.tr1
 sweep: tran tran10   begin, stop_t=  8.00E-09 #sweeps=8001 cpu clock=  1.94E+01
 tran: time= 8.8861E-10 tot_iter=      14 conv_iter=       7 cpu clock= 1.94E+01
 tran: time= 1.6567E-09 tot_iter=     842 conv_iter=     178 cpu clock= 1.94E+01
 tran: time= 2.4001E-09 tot_iter=    1206 conv_iter=     270 cpu clock= 1.95E+01
 tran: time= 3.2020E-09 tot_iter=    1949 conv_iter=     418 cpu clock= 1.95E+01
 tran: time= 4.0324E-09 tot_iter=    2293 conv_iter=     495 cpu clock= 1.95E+01
 tran: time= 4.8593E-09 tot_iter=    2714 conv_iter=     601 cpu clock= 1.96E+01
 tran: time= 5.6348E-09 tot_iter=    3494 conv_iter=     769 cpu clock= 1.96E+01
 tran: time= 6.4091E-09 tot_iter=    3951 conv_iter=     879 cpu clock= 1.96E+01
 tran: time= 7.2053E-09 tot_iter=    4405 conv_iter=     980 cpu clock= 1.97E+01
 tran: time= 8.0000E-09 tot_iter=    4753 conv_iter=    1056 cpu clock= 1.97E+01
 sweep: tran tran10   end,  cpu clock=  1.97E+01 peak memory=       191 mb
 parameter: t1              =    3.10E-09
 output: tsu_b_01.tr1
 sweep: tran tran11   begin, stop_t=  8.00E-09 #sweeps=8001 cpu clock=  1.97E+01
 tran: time= 8.8861E-10 tot_iter=      14 conv_iter=       7 cpu clock= 1.97E+01
 tran: time= 1.6567E-09 tot_iter=     842 conv_iter=     178 cpu clock= 1.98E+01
 tran: time= 2.4001E-09 tot_iter=    1206 conv_iter=     270 cpu clock= 1.98E+01
 tran: time= 3.2010E-09 tot_iter=    1956 conv_iter=     418 cpu clock= 1.98E+01
 tran: time= 4.0339E-09 tot_iter=    2305 conv_iter=     495 cpu clock= 1.99E+01
 tran: time= 4.8621E-09 tot_iter=    2723 conv_iter=     601 cpu clock= 1.99E+01
 tran: time= 5.6344E-09 tot_iter=    3503 conv_iter=     769 cpu clock= 1.99E+01
 tran: time= 6.4091E-09 tot_iter=    3960 conv_iter=     879 cpu clock= 2.00E+01
 tran: time= 7.2053E-09 tot_iter=    4414 conv_iter=     980 cpu clock= 2.00E+01
 tran: time= 8.0000E-09 tot_iter=    4762 conv_iter=    1056 cpu clock= 2.00E+01
 sweep: tran tran11   end,  cpu clock=  2.00E+01 peak memory=       191 mb
 parameter: t1              =    3.11E-09
 output: tsu_b_01.tr1
 sweep: tran tran12   begin, stop_t=  8.00E-09 #sweeps=8001 cpu clock=  2.00E+01
 tran: time= 8.8861E-10 tot_iter=      14 conv_iter=       7 cpu clock= 2.00E+01
 tran: time= 1.6567E-09 tot_iter=     842 conv_iter=     178 cpu clock= 2.01E+01
 tran: time= 2.4001E-09 tot_iter=    1206 conv_iter=     270 cpu clock= 2.01E+01
 tran: time= 3.2004E-09 tot_iter=    1932 conv_iter=     414 cpu clock= 2.01E+01
 tran: time= 4.0266E-09 tot_iter=    2236 conv_iter=     483 cpu clock= 2.02E+01
 tran: time= 4.8587E-09 tot_iter=    2645 conv_iter=     585 cpu clock= 2.02E+01
 tran: time= 5.6348E-09 tot_iter=    3425 conv_iter=     753 cpu clock= 2.02E+01
 tran: time= 6.4091E-09 tot_iter=    3882 conv_iter=     863 cpu clock= 2.03E+01
 tran: time= 7.2053E-09 tot_iter=    4336 conv_iter=     964 cpu clock= 2.03E+01
 tran: time= 8.0000E-09 tot_iter=    4684 conv_iter=    1040 cpu clock= 2.03E+01
 sweep: tran tran12   end,  cpu clock=  2.03E+01 peak memory=       191 mb
 parameter: t1              =    3.12E-09
 output: tsu_b_01.tr1
 sweep: tran tran13   begin, stop_t=  8.00E-09 #sweeps=8001 cpu clock=  2.03E+01
 tran: time= 8.8861E-10 tot_iter=      14 conv_iter=       7 cpu clock= 2.03E+01
 tran: time= 1.6567E-09 tot_iter=     842 conv_iter=     178 cpu clock= 2.04E+01
 tran: time= 2.4001E-09 tot_iter=    1206 conv_iter=     270 cpu clock= 2.04E+01
 tran: time= 3.2010E-09 tot_iter=    1880 conv_iter=     402 cpu clock= 2.04E+01
 tran: time= 4.0174E-09 tot_iter=    2185 conv_iter=     472 cpu clock= 2.05E+01
 tran: time= 5.0000E-09 tot_iter=    2606 conv_iter=     578 cpu clock= 2.05E+01
 tran: time= 5.6197E-09 tot_iter=    3345 conv_iter=     739 cpu clock= 2.05E+01
 tran: time= 6.4133E-09 tot_iter=    3805 conv_iter=     849 cpu clock= 2.06E+01
 tran: time= 7.2045E-09 tot_iter=    4256 conv_iter=     952 cpu clock= 2.06E+01
 tran: time= 8.0000E-09 tot_iter=    4614 conv_iter=    1030 cpu clock= 2.06E+01
 sweep: tran tran13   end,  cpu clock=  2.06E+01 peak memory=       191 mb
 parameter: t1              =    3.13E-09
 output: tsu_b_01.tr1
 sweep: tran tran14   begin, stop_t=  8.00E-09 #sweeps=8001 cpu clock=  2.06E+01
 tran: time= 8.8861E-10 tot_iter=      14 conv_iter=       7 cpu clock= 2.06E+01
 tran: time= 1.6567E-09 tot_iter=     842 conv_iter=     178 cpu clock= 2.07E+01
 tran: time= 2.4001E-09 tot_iter=    1206 conv_iter=     270 cpu clock= 2.07E+01
 tran: time= 3.2022E-09 tot_iter=    1865 conv_iter=     400 cpu clock= 2.07E+01
 tran: time= 4.0500E-09 tot_iter=    2221 conv_iter=     479 cpu clock= 2.08E+01
 tran: time= 4.9575E-09 tot_iter=    2604 conv_iter=     575 cpu clock= 2.08E+01
 tran: time= 5.6445E-09 tot_iter=    3335 conv_iter=     737 cpu clock= 2.08E+01
 tran: time= 6.4236E-09 tot_iter=    3718 conv_iter=     830 cpu clock= 2.09E+01
 tran: time= 7.2004E-09 tot_iter=    4180 conv_iter=     935 cpu clock= 2.09E+01
 tran: time= 8.0000E-09 tot_iter=    4532 conv_iter=    1013 cpu clock= 2.09E+01
 sweep: tran tran14   end,  cpu clock=  2.09E+01 peak memory=       191 mb
 parameter: t1              =    3.14E-09
 output: tsu_b_01.tr1
 sweep: tran tran15   begin, stop_t=  8.00E-09 #sweeps=8001 cpu clock=  2.09E+01
 tran: time= 8.8861E-10 tot_iter=      14 conv_iter=       7 cpu clock= 2.09E+01
 tran: time= 1.6567E-09 tot_iter=     842 conv_iter=     178 cpu clock= 2.10E+01
 tran: time= 2.4001E-09 tot_iter=    1206 conv_iter=     270 cpu clock= 2.10E+01
 tran: time= 3.2006E-09 tot_iter=    1853 conv_iter=     402 cpu clock= 2.10E+01
 tran: time= 4.0500E-09 tot_iter=    2178 conv_iter=     474 cpu clock= 2.11E+01
 tran: time= 4.8634E-09 tot_iter=    2598 conv_iter=     578 cpu clock= 2.11E+01
 tran: time= 5.6238E-09 tot_iter=    3365 conv_iter=     745 cpu clock= 2.11E+01
 tran: time= 6.4134E-09 tot_iter=    3848 conv_iter=     860 cpu clock= 2.12E+01
 tran: time= 7.2027E-09 tot_iter=    4307 conv_iter=     963 cpu clock= 2.12E+01
 tran: time= 8.0000E-09 tot_iter=    4653 conv_iter=    1038 cpu clock= 2.12E+01
 sweep: tran tran15   end,  cpu clock=  2.12E+01 peak memory=       191 mb
 parameter: t1              =    3.15E-09
 output: tsu_b_01.tr1
 sweep: tran tran16   begin, stop_t=  8.00E-09 #sweeps=8001 cpu clock=  2.12E+01
 tran: time= 8.8861E-10 tot_iter=      14 conv_iter=       7 cpu clock= 2.12E+01
 tran: time= 1.6567E-09 tot_iter=     842 conv_iter=     178 cpu clock= 2.13E+01
 tran: time= 2.4001E-09 tot_iter=    1206 conv_iter=     270 cpu clock= 2.13E+01
 tran: time= 3.2000E-09 tot_iter=    1779 conv_iter=     388 cpu clock= 2.13E+01
 tran: time= 4.0385E-09 tot_iter=    2166 conv_iter=     471 cpu clock= 2.14E+01
 tran: time= 4.8632E-09 tot_iter=    2582 conv_iter=     577 cpu clock= 2.14E+01
 tran: time= 5.6342E-09 tot_iter=    3364 conv_iter=     745 cpu clock= 2.14E+01
 tran: time= 6.4144E-09 tot_iter=    3799 conv_iter=     850 cpu clock= 2.15E+01
 tran: time= 7.2078E-09 tot_iter=    4262 conv_iter=     954 cpu clock= 2.15E+01
 tran: time= 8.0000E-09 tot_iter=    4609 conv_iter=    1029 cpu clock= 2.15E+01
 sweep: tran tran16   end,  cpu clock=  2.15E+01 peak memory=       191 mb
 parameter: t1              =    3.16E-09
 output: tsu_b_01.tr1
 sweep: tran tran17   begin, stop_t=  8.00E-09 #sweeps=8001 cpu clock=  2.15E+01
 tran: time= 8.8861E-10 tot_iter=      14 conv_iter=       7 cpu clock= 2.15E+01
 tran: time= 1.6567E-09 tot_iter=     842 conv_iter=     178 cpu clock= 2.16E+01
 tran: time= 2.4001E-09 tot_iter=    1206 conv_iter=     270 cpu clock= 2.16E+01
 tran: time= 3.2008E-09 tot_iter=    1749 conv_iter=     383 cpu clock= 2.16E+01
 tran: time= 4.0500E-09 tot_iter=    2197 conv_iter=     476 cpu clock= 2.17E+01
 tran: time= 4.8190E-09 tot_iter=    2638 conv_iter=     584 cpu clock= 2.17E+01
 tran: time= 5.6431E-09 tot_iter=    3397 conv_iter=     751 cpu clock= 2.17E+01
 tran: time= 6.4138E-09 tot_iter=    3812 conv_iter=     852 cpu clock= 2.18E+01
 tran: time= 7.2078E-09 tot_iter=    4275 conv_iter=     956 cpu clock= 2.18E+01
 tran: time= 8.0000E-09 tot_iter=    4622 conv_iter=    1031 cpu clock= 2.18E+01
 sweep: tran tran17   end,  cpu clock=  2.18E+01 peak memory=       191 mb
 parameter: t1              =    3.17E-09
 output: tsu_b_01.tr1
 sweep: tran tran18   begin, stop_t=  8.00E-09 #sweeps=8001 cpu clock=  2.18E+01
 tran: time= 8.8861E-10 tot_iter=      14 conv_iter=       7 cpu clock= 2.18E+01
 tran: time= 1.6567E-09 tot_iter=     842 conv_iter=     178 cpu clock= 2.19E+01
 tran: time= 2.4001E-09 tot_iter=    1206 conv_iter=     270 cpu clock= 2.19E+01
 tran: time= 3.2002E-09 tot_iter=    1733 conv_iter=     380 cpu clock= 2.19E+01
 tran: time= 4.0134E-09 tot_iter=    2288 conv_iter=     496 cpu clock= 2.20E+01
 tran: time= 4.8071E-09 tot_iter=    2710 conv_iter=     600 cpu clock= 2.20E+01
 tran: time= 5.6171E-09 tot_iter=    3652 conv_iter=     797 cpu clock= 2.21E+01
 tran: time= 6.4039E-09 tot_iter=    4094 conv_iter=     909 cpu clock= 2.21E+01
 tran: time= 7.2045E-09 tot_iter=    4560 conv_iter=    1011 cpu clock= 2.21E+01
 tran: time= 8.0000E-09 tot_iter=    4935 conv_iter=    1091 cpu clock= 2.21E+01
 sweep: tran tran18   end,  cpu clock=  2.21E+01 peak memory=       191 mb
 parameter: t1              =    3.18E-09
 output: tsu_b_01.tr1
 sweep: tran tran19   begin, stop_t=  8.00E-09 #sweeps=8001 cpu clock=  2.21E+01
 tran: time= 8.8861E-10 tot_iter=      14 conv_iter=       7 cpu clock= 2.21E+01
 tran: time= 1.6567E-09 tot_iter=     842 conv_iter=     178 cpu clock= 2.22E+01
 tran: time= 2.4001E-09 tot_iter=    1206 conv_iter=     270 cpu clock= 2.22E+01
 tran: time= 3.2001E-09 tot_iter=    1723 conv_iter=     379 cpu clock= 2.23E+01
 tran: time= 4.0500E-09 tot_iter=    2098 conv_iter=     458 cpu clock= 2.23E+01
 tran: time= 4.8360E-09 tot_iter=    2512 conv_iter=     559 cpu clock= 2.23E+01
 tran: time= 5.6137E-09 tot_iter=    3465 conv_iter=     759 cpu clock= 2.24E+01
 tran: time= 6.4150E-09 tot_iter=    3908 conv_iter=     869 cpu clock= 2.24E+01
 tran: time= 7.2078E-09 tot_iter=    4366 conv_iter=     973 cpu clock= 2.24E+01
 tran: time= 8.0000E-09 tot_iter=    4721 conv_iter=    1048 cpu clock= 2.24E+01
 sweep: tran tran19   end,  cpu clock=  2.24E+01 peak memory=       191 mb
 parameter: t1              =    3.19E-09
 output: tsu_b_01.tr1
 sweep: tran tran20   begin, stop_t=  8.00E-09 #sweeps=8001 cpu clock=  2.24E+01
 tran: time= 8.8861E-10 tot_iter=      14 conv_iter=       7 cpu clock= 2.24E+01
 tran: time= 1.6567E-09 tot_iter=     842 conv_iter=     178 cpu clock= 2.25E+01
 tran: time= 2.4001E-09 tot_iter=    1206 conv_iter=     270 cpu clock= 2.25E+01
 tran: time= 3.2015E-09 tot_iter=    1743 conv_iter=     381 cpu clock= 2.26E+01
 tran: time= 4.0500E-09 tot_iter=    2082 conv_iter=     452 cpu clock= 2.26E+01
 tran: time= 5.0000E-09 tot_iter=    2472 conv_iter=     548 cpu clock= 2.26E+01
 tran: time= 5.6350E-09 tot_iter=    3419 conv_iter=     746 cpu clock= 2.27E+01
 tran: time= 6.4140E-09 tot_iter=    3886 conv_iter=     861 cpu clock= 2.27E+01
 tran: time= 7.2069E-09 tot_iter=    4346 conv_iter=     965 cpu clock= 2.27E+01
 tran: time= 8.0000E-09 tot_iter=    4661 conv_iter=    1035 cpu clock= 2.28E+01
 sweep: tran tran20   end,  cpu clock=  2.28E+01 peak memory=       191 mb
 parameter: t1              =    3.20E-09
 output: tsu_b_01.tr1
 sweep: tran tran21   begin, stop_t=  8.00E-09 #sweeps=8001 cpu clock=  2.28E+01
 tran: time= 8.8861E-10 tot_iter=      14 conv_iter=       7 cpu clock= 2.28E+01
 tran: time= 1.6567E-09 tot_iter=     842 conv_iter=     178 cpu clock= 2.28E+01
 tran: time= 2.4001E-09 tot_iter=    1206 conv_iter=     270 cpu clock= 2.28E+01
 tran: time= 3.2000E-09 tot_iter=    1688 conv_iter=     372 cpu clock= 2.29E+01
 tran: time= 4.0500E-09 tot_iter=    2047 conv_iter=     445 cpu clock= 2.29E+01
 tran: time= 4.8938E-09 tot_iter=    2486 conv_iter=     551 cpu clock= 2.29E+01
 tran: time= 5.6290E-09 tot_iter=    3434 conv_iter=     751 cpu clock= 2.30E+01
 tran: time= 6.4139E-09 tot_iter=    3873 conv_iter=     860 cpu clock= 2.30E+01
 tran: time= 7.2028E-09 tot_iter=    4334 conv_iter=     963 cpu clock= 2.30E+01
 tran: time= 8.0000E-09 tot_iter=    4689 conv_iter=    1038 cpu clock= 2.31E+01
 sweep: tran tran21   end,  cpu clock=  2.31E+01 peak memory=       191 mb
 parameter: t1              =    3.21E-09
 output: tsu_b_01.tr1
 sweep: tran tran22   begin, stop_t=  8.00E-09 #sweeps=8001 cpu clock=  2.31E+01
 tran: time= 8.8861E-10 tot_iter=      14 conv_iter=       7 cpu clock= 2.31E+01
 tran: time= 1.6567E-09 tot_iter=     842 conv_iter=     178 cpu clock= 2.31E+01
 tran: time= 2.4001E-09 tot_iter=    1206 conv_iter=     270 cpu clock= 2.31E+01
 tran: time= 3.2027E-09 tot_iter=    1688 conv_iter=     372 cpu clock= 2.32E+01
 tran: time= 4.0500E-09 tot_iter=    2071 conv_iter=     449 cpu clock= 2.32E+01
[...]
 tran: time= 7.2074E-09 tot_iter=    4035 conv_iter=     951 cpu clock= 7.17E+01
 tran: time= 8.0000E-09 tot_iter=    4078 conv_iter=     964 cpu clock= 7.17E+01
 sweep: tran tran32   end,  cpu clock=  7.17E+01 peak memory=       191 mb
 parameter: t1              =    3.32E-09
 output: tsu_b_01.tr4
 sweep: tran tran33   begin, stop_t=  8.00E-09 #sweeps=8001 cpu clock=  7.17E+01
 tran: time= 8.8861E-10 tot_iter=      14 conv_iter=       7 cpu clock= 7.17E+01
 tran: time= 1.6030E-09 tot_iter=     717 conv_iter=     158 cpu clock= 7.17E+01
 tran: time= 2.4381E-09 tot_iter=    1100 conv_iter=     257 cpu clock= 7.17E+01
 tran: time= 3.2085E-09 tot_iter=    1699 conv_iter=     391 cpu clock= 7.18E+01
 tran: time= 4.0167E-09 tot_iter=    1950 conv_iter=     451 cpu clock= 7.18E+01
 tran: time= 5.0000E-09 tot_iter=    2306 conv_iter=     545 cpu clock= 7.18E+01
 tran: time= 5.6480E-09 tot_iter=    3012 conv_iter=     707 cpu clock= 7.19E+01
 tran: time= 6.4516E-09 tot_iter=    3398 conv_iter=     808 cpu clock= 7.19E+01
 tran: time= 7.2008E-09 tot_iter=    4020 conv_iter=     949 cpu clock= 7.19E+01
 tran: time= 8.0000E-09 tot_iter=    4064 conv_iter=     962 cpu clock= 7.19E+01
 sweep: tran tran33   end,  cpu clock=  7.19E+01 peak memory=       191 mb
 parameter: t1              =    3.33E-09
 output: tsu_b_01.tr4
 sweep: tran tran34   begin, stop_t=  8.00E-09 #sweeps=8001 cpu clock=  7.19E+01
 tran: time= 8.8861E-10 tot_iter=      14 conv_iter=       7 cpu clock= 7.19E+01
 tran: time= 1.6030E-09 tot_iter=     717 conv_iter=     158 cpu clock= 7.20E+01
 tran: time= 2.4381E-09 tot_iter=    1100 conv_iter=     257 cpu clock= 7.20E+01
 tran: time= 3.2085E-09 tot_iter=    1699 conv_iter=     391 cpu clock= 7.21E+01
 tran: time= 4.0500E-09 tot_iter=    1942 conv_iter=     448 cpu clock= 7.21E+01
 tran: time= 5.0000E-09 tot_iter=    2301 conv_iter=     542 cpu clock= 7.21E+01
 tran: time= 5.6435E-09 tot_iter=    3010 conv_iter=     704 cpu clock= 7.22E+01
 tran: time= 6.4528E-09 tot_iter=    3381 conv_iter=     802 cpu clock= 7.22E+01
 tran: time= 7.2015E-09 tot_iter=    3976 conv_iter=     937 cpu clock= 7.22E+01
 tran: time= 8.0000E-09 tot_iter=    4020 conv_iter=     950 cpu clock= 7.22E+01
 sweep: tran tran34   end,  cpu clock=  7.22E+01 peak memory=       191 mb
 parameter: t1              =    3.34E-09
 output: tsu_b_01.tr4
 sweep: tran tran35   begin, stop_t=  8.00E-09 #sweeps=8001 cpu clock=  7.22E+01
 tran: time= 8.8861E-10 tot_iter=      14 conv_iter=       7 cpu clock= 7.22E+01
 tran: time= 1.6030E-09 tot_iter=     717 conv_iter=     158 cpu clock= 7.23E+01
 tran: time= 2.4381E-09 tot_iter=    1100 conv_iter=     257 cpu clock= 7.23E+01
 tran: time= 3.2085E-09 tot_iter=    1699 conv_iter=     391 cpu clock= 7.23E+01
 tran: time= 4.0098E-09 tot_iter=    1941 conv_iter=     447 cpu clock= 7.24E+01
 tran: time= 5.0000E-09 tot_iter=    2297 conv_iter=     541 cpu clock= 7.24E+01
 tran: time= 5.6005E-09 tot_iter=    3000 conv_iter=     703 cpu clock= 7.24E+01
 tran: time= 6.4586E-09 tot_iter=    3379 conv_iter=     803 cpu clock= 7.25E+01
 tran: time= 7.2168E-09 tot_iter=    4001 conv_iter=     943 cpu clock= 7.25E+01
 tran: time= 8.0000E-09 tot_iter=    4042 conv_iter=     955 cpu clock= 7.25E+01
 sweep: tran tran35   end,  cpu clock=  7.25E+01 peak memory=       191 mb
 parameter: t1              =    3.35E-09
 output: tsu_b_01.tr4
 sweep: tran tran36   begin, stop_t=  8.00E-09 #sweeps=8001 cpu clock=  7.25E+01
 tran: time= 8.8861E-10 tot_iter=      14 conv_iter=       7 cpu clock= 7.25E+01
 tran: time= 1.6030E-09 tot_iter=     717 conv_iter=     158 cpu clock= 7.26E+01
 tran: time= 2.4381E-09 tot_iter=    1100 conv_iter=     257 cpu clock= 7.26E+01
 tran: time= 3.2085E-09 tot_iter=    1699 conv_iter=     391 cpu clock= 7.26E+01
 tran: time= 4.0227E-09 tot_iter=    1957 conv_iter=     452 cpu clock= 7.27E+01
 tran: time= 5.0000E-09 tot_iter=    2328 conv_iter=     548 cpu clock= 7.27E+01
 tran: time= 5.6224E-09 tot_iter=    3041 conv_iter=     712 cpu clock= 7.27E+01
 tran: time= 6.4441E-09 tot_iter=    3415 conv_iter=     810 cpu clock= 7.28E+01
 tran: time= 7.2008E-09 tot_iter=    4014 conv_iter=     948 cpu clock= 7.28E+01
 tran: time= 8.0000E-09 tot_iter=    4058 conv_iter=     961 cpu clock= 7.28E+01
 sweep: tran tran36   end,  cpu clock=  7.28E+01 peak memory=       191 mb
 parameter: t1              =    3.36E-09
 output: tsu_b_01.tr4
 sweep: tran tran37   begin, stop_t=  8.00E-09 #sweeps=8001 cpu clock=  7.28E+01
 tran: time= 8.8861E-10 tot_iter=      14 conv_iter=       7 cpu clock= 7.28E+01
 tran: time= 1.6030E-09 tot_iter=     717 conv_iter=     158 cpu clock= 7.28E+01
 tran: time= 2.4381E-09 tot_iter=    1100 conv_iter=     257 cpu clock= 7.29E+01
 tran: time= 3.2085E-09 tot_iter=    1699 conv_iter=     391 cpu clock= 7.29E+01
 tran: time= 4.0500E-09 tot_iter=    1958 conv_iter=     452 cpu clock= 7.29E+01
 tran: time= 4.8181E-09 tot_iter=    2319 conv_iter=     545 cpu clock= 7.30E+01
 tran: time= 5.6182E-09 tot_iter=    3049 conv_iter=     713 cpu clock= 7.30E+01
 tran: time= 6.4173E-09 tot_iter=    3429 conv_iter=     812 cpu clock= 7.30E+01
 tran: time= 7.2074E-09 tot_iter=    4036 conv_iter=     951 cpu clock= 7.31E+01
 tran: time= 8.0000E-09 tot_iter=    4079 conv_iter=     964 cpu clock= 7.31E+01
 sweep: tran tran37   end,  cpu clock=  7.31E+01 peak memory=       191 mb
 parameter: t1              =    3.37E-09
 output: tsu_b_01.tr4
 sweep: tran tran38   begin, stop_t=  8.00E-09 #sweeps=8001 cpu clock=  7.31E+01
 tran: time= 8.8861E-10 tot_iter=      14 conv_iter=       7 cpu clock= 7.31E+01
 tran: time= 1.6030E-09 tot_iter=     717 conv_iter=     158 cpu clock= 7.31E+01
 tran: time= 2.4381E-09 tot_iter=    1100 conv_iter=     257 cpu clock= 7.32E+01
 tran: time= 3.2085E-09 tot_iter=    1699 conv_iter=     391 cpu clock= 7.32E+01
 tran: time= 4.0500E-09 tot_iter=    1948 conv_iter=     449 cpu clock= 7.32E+01
 tran: time= 5.0000E-09 tot_iter=    2309 conv_iter=     543 cpu clock= 7.32E+01
 tran: time= 5.6435E-09 tot_iter=    3018 conv_iter=     705 cpu clock= 7.33E+01
 tran: time= 6.4528E-09 tot_iter=    3389 conv_iter=     803 cpu clock= 7.33E+01
 tran: time= 7.2015E-09 tot_iter=    3984 conv_iter=     938 cpu clock= 7.33E+01
 tran: time= 8.0000E-09 tot_iter=    4028 conv_iter=     951 cpu clock= 7.34E+01
 sweep: tran tran38   end,  cpu clock=  7.34E+01 peak memory=       191 mb
 parameter: t1              =    3.38E-09
 output: tsu_b_01.tr4
 sweep: tran tran39   begin, stop_t=  8.00E-09 #sweeps=8001 cpu clock=  7.34E+01
 tran: time= 8.8861E-10 tot_iter=      14 conv_iter=       7 cpu clock= 7.34E+01
 tran: time= 1.6030E-09 tot_iter=     717 conv_iter=     158 cpu clock= 7.34E+01
 tran: time= 2.4381E-09 tot_iter=    1100 conv_iter=     257 cpu clock= 7.34E+01
 tran: time= 3.2085E-09 tot_iter=    1699 conv_iter=     391 cpu clock= 7.35E+01
 tran: time= 4.0500E-09 tot_iter=    1967 conv_iter=     453 cpu clock= 7.35E+01
 tran: time= 4.8192E-09 tot_iter=    2329 conv_iter=     546 cpu clock= 7.35E+01
 tran: time= 5.6764E-09 tot_iter=    3072 conv_iter=     716 cpu clock= 7.36E+01
 tran: time= 6.4173E-09 tot_iter=    3454 conv_iter=     816 cpu clock= 7.36E+01
 tran: time= 7.2053E-09 tot_iter=    4066 conv_iter=     956 cpu clock= 7.36E+01
 tran: time= 8.0000E-09 tot_iter=    4109 conv_iter=     969 cpu clock= 7.37E+01
 sweep: tran tran39   end,  cpu clock=  7.37E+01 peak memory=       191 mb
 parameter: t1              =    3.39E-09
 output: tsu_b_01.tr4
 sweep: tran tran40   begin, stop_t=  8.00E-09 #sweeps=8001 cpu clock=  7.37E+01
 tran: time= 8.8861E-10 tot_iter=      14 conv_iter=       7 cpu clock= 7.37E+01
 tran: time= 1.6030E-09 tot_iter=     717 conv_iter=     158 cpu clock= 7.37E+01
 tran: time= 2.4381E-09 tot_iter=    1100 conv_iter=     257 cpu clock= 7.37E+01
 tran: time= 3.2085E-09 tot_iter=    1699 conv_iter=     391 cpu clock= 7.38E+01
 tran: time= 4.0500E-09 tot_iter=    1961 conv_iter=     453 cpu clock= 7.38E+01
 tran: time= 5.0000E-09 tot_iter=    2321 conv_iter=     547 cpu clock= 7.38E+01
 tran: time= 5.6224E-09 tot_iter=    3034 conv_iter=     711 cpu clock= 7.39E+01
 tran: time= 6.4441E-09 tot_iter=    3408 conv_iter=     809 cpu clock= 7.39E+01
 tran: time= 7.2008E-09 tot_iter=    4007 conv_iter=     947 cpu clock= 7.39E+01
 tran: time= 8.0000E-09 tot_iter=    4051 conv_iter=     960 cpu clock= 7.39E+01
 sweep: tran tran40   end,  cpu clock=  7.39E+01 peak memory=       191 mb
 parameter: t1              =    3.40E-09
 output: tsu_b_01.tr4
 sweep: tran tran41   begin, stop_t=  8.00E-09 #sweeps=8001 cpu clock=  7.39E+01
 tran: time= 8.8861E-10 tot_iter=      14 conv_iter=       7 cpu clock= 7.39E+01
 tran: time= 1.6030E-09 tot_iter=     717 conv_iter=     158 cpu clock= 7.40E+01
 tran: time= 2.4381E-09 tot_iter=    1100 conv_iter=     257 cpu clock= 7.40E+01
 tran: time= 3.2085E-09 tot_iter=    1699 conv_iter=     391 cpu clock= 7.40E+01
 tran: time= 4.0142E-09 tot_iter=    1959 conv_iter=     452 cpu clock= 7.41E+01
 tran: time= 5.0000E-09 tot_iter=    2315 conv_iter=     546 cpu clock= 7.41E+01
 tran: time= 5.6224E-09 tot_iter=    3031 conv_iter=     710 cpu clock= 7.42E+01
 tran: time= 6.4441E-09 tot_iter=    3405 conv_iter=     808 cpu clock= 7.42E+01
 tran: time= 7.2008E-09 tot_iter=    4004 conv_iter=     946 cpu clock= 7.42E+01
 tran: time= 8.0000E-09 tot_iter=    4048 conv_iter=     959 cpu clock= 7.42E+01
 sweep: tran tran41   end,  cpu clock=  7.42E+01 peak memory=       191 mb
 parameter: t1              =    3.41E-09
 output: tsu_b_01.tr4
 sweep: tran tran42   begin, stop_t=  8.00E-09 #sweeps=8001 cpu clock=  7.42E+01
 tran: time= 8.8861E-10 tot_iter=      14 conv_iter=       7 cpu clock= 7.42E+01
 tran: time= 1.6030E-09 tot_iter=     717 conv_iter=     158 cpu clock= 7.43E+01
 tran: time= 2.4381E-09 tot_iter=    1100 conv_iter=     257 cpu clock= 7.43E+01
 tran: time= 3.2085E-09 tot_iter=    1699 conv_iter=     391 cpu clock= 7.43E+01
 tran: time= 4.0500E-09 tot_iter=    1944 conv_iter=     450 cpu clock= 7.44E+01
 tran: time= 5.0000E-09 tot_iter=    2295 conv_iter=     542 cpu clock= 7.44E+01
 tran: time= 5.6436E-09 tot_iter=    3007 conv_iter=     704 cpu clock= 7.44E+01
 tran: time= 6.4528E-09 tot_iter=    3378 conv_iter=     802 cpu clock= 7.45E+01
 tran: time= 7.2015E-09 tot_iter=    3973 conv_iter=     937 cpu clock= 7.45E+01
 tran: time= 8.0000E-09 tot_iter=    4017 conv_iter=     950 cpu clock= 7.45E+01
 sweep: tran tran42   end,  cpu clock=  7.45E+01 peak memory=       191 mb
 parameter: t1              =    3.42E-09
 output: tsu_b_01.tr4
 sweep: tran tran43   begin, stop_t=  8.00E-09 #sweeps=8001 cpu clock=  7.45E+01
 tran: time= 8.8861E-10 tot_iter=      14 conv_iter=       7 cpu clock= 7.45E+01
 tran: time= 1.6030E-09 tot_iter=     717 conv_iter=     158 cpu clock= 7.45E+01
 tran: time= 2.4381E-09 tot_iter=    1100 conv_iter=     257 cpu clock= 7.46E+01
 tran: time= 3.2085E-09 tot_iter=    1699 conv_iter=     391 cpu clock= 7.46E+01
 tran: time= 4.0500E-09 tot_iter=    1927 conv_iter=     445 cpu clock= 7.46E+01
 tran: time= 5.0000E-09 tot_iter=    2278 conv_iter=     537 cpu clock= 7.47E+01
 tran: time= 5.6436E-09 tot_iter=    2990 conv_iter=     699 cpu clock= 7.47E+01
 tran: time= 6.4590E-09 tot_iter=    3374 conv_iter=     800 cpu clock= 7.47E+01
 tran: time= 7.2031E-09 tot_iter=    3960 conv_iter=     934 cpu clock= 7.48E+01
 tran: time= 8.0000E-09 tot_iter=    4004 conv_iter=     947 cpu clock= 7.48E+01
 sweep: tran tran43   end,  cpu clock=  7.48E+01 peak memory=       191 mb
 parameter: t1              =    3.43E-09
 output: tsu_b_01.tr4
 sweep: tran tran44   begin, stop_t=  8.00E-09 #sweeps=8001 cpu clock=  7.48E+01
 tran: time= 8.8861E-10 tot_iter=      14 conv_iter=       7 cpu clock= 7.48E+01
 tran: time= 1.6030E-09 tot_iter=     717 conv_iter=     158 cpu clock= 7.48E+01
 tran: time= 2.4381E-09 tot_iter=    1100 conv_iter=     257 cpu clock= 7.48E+01
 tran: time= 3.2085E-09 tot_iter=    1699 conv_iter=     391 cpu clock= 7.49E+01
 tran: time= 4.0500E-09 tot_iter=    1935 conv_iter=     446 cpu clock= 7.49E+01
 tran: time= 4.8181E-09 tot_iter=    2296 conv_iter=     539 cpu clock= 7.49E+01
 tran: time= 5.6332E-09 tot_iter=    3016 conv_iter=     703 cpu clock= 7.50E+01
 tran: time= 6.4529E-09 tot_iter=    3386 conv_iter=     801 cpu clock= 7.50E+01
 tran: time= 7.2015E-09 tot_iter=    3981 conv_iter=     936 cpu clock= 7.50E+01
 tran: time= 8.0000E-09 tot_iter=    4025 conv_iter=     949 cpu clock= 7.50E+01
 sweep: tran tran44   end,  cpu clock=  7.50E+01 peak memory=       191 mb
 parameter: t1              =    3.44E-09
 output: tsu_b_01.tr4
 sweep: tran tran45   begin, stop_t=  8.00E-09 #sweeps=8001 cpu clock=  7.50E+01
 tran: time= 8.8861E-10 tot_iter=      14 conv_iter=       7 cpu clock= 7.50E+01
 tran: time= 1.6030E-09 tot_iter=     717 conv_iter=     158 cpu clock= 7.51E+01
 tran: time= 2.4381E-09 tot_iter=    1100 conv_iter=     257 cpu clock= 7.51E+01
 tran: time= 3.2085E-09 tot_iter=    1699 conv_iter=     391 cpu clock= 7.52E+01
 tran: time= 4.0500E-09 tot_iter=    1935 conv_iter=     447 cpu clock= 7.52E+01
 tran: time= 5.0000E-09 tot_iter=    2297 conv_iter=     541 cpu clock= 7.52E+01
 tran: time= 5.6039E-09 tot_iter=    3008 conv_iter=     705 cpu clock= 7.53E+01
 tran: time= 6.4168E-09 tot_iter=    3385 conv_iter=     804 cpu clock= 7.53E+01
 tran: time= 7.2046E-09 tot_iter=    3992 conv_iter=     944 cpu clock= 7.53E+01
 tran: time= 8.0000E-09 tot_iter=    4035 conv_iter=     957 cpu clock= 7.53E+01
 sweep: tran tran45   end,  cpu clock=  7.53E+01 peak memory=       191 mb
 parameter: t1              =    3.45E-09
 output: tsu_b_01.tr4
 sweep: tran tran46   begin, stop_t=  8.00E-09 #sweeps=8001 cpu clock=  7.53E+01
 tran: time= 8.8861E-10 tot_iter=      14 conv_iter=       7 cpu clock= 7.53E+01
 tran: time= 1.6030E-09 tot_iter=     717 conv_iter=     158 cpu clock= 7.54E+01
 tran: time= 2.4381E-09 tot_iter=    1100 conv_iter=     257 cpu clock= 7.54E+01
 tran: time= 3.2085E-09 tot_iter=    1699 conv_iter=     391 cpu clock= 7.55E+01
 tran: time= 4.0500E-09 tot_iter=    1964 conv_iter=     453 cpu clock= 7.55E+01
 tran: time= 5.0000E-09 tot_iter=    2324 conv_iter=     547 cpu clock= 7.55E+01
 tran: time= 5.6224E-09 tot_iter=    3037 conv_iter=     711 cpu clock= 7.55E+01
 tran: time= 6.4441E-09 tot_iter=    3411 conv_iter=     809 cpu clock= 7.56E+01
 tran: time= 7.2008E-09 tot_iter=    4010 conv_iter=     947 cpu clock= 7.56E+01
 tran: time= 8.0000E-09 tot_iter=    4054 conv_iter=     960 cpu clock= 7.56E+01
 sweep: tran tran46   end,  cpu clock=  7.56E+01 peak memory=       191 mb
 parameter: t1              =    3.46E-09
 output: tsu_b_01.tr4
 sweep: tran tran47   begin, stop_t=  8.00E-09 #sweeps=8001 cpu clock=  7.56E+01
 tran: time= 8.8861E-10 tot_iter=      14 conv_iter=       7 cpu clock= 7.56E+01
 tran: time= 1.6030E-09 tot_iter=     717 conv_iter=     158 cpu clock= 7.57E+01
 tran: time= 2.4381E-09 tot_iter=    1100 conv_iter=     257 cpu clock= 7.57E+01
 tran: time= 3.2085E-09 tot_iter=    1699 conv_iter=     391 cpu clock= 7.58E+01
 tran: time= 4.0500E-09 tot_iter=    1964 conv_iter=     453 cpu clock= 7.58E+01
 tran: time= 5.0000E-09 tot_iter=    2322 conv_iter=     547 cpu clock= 7.58E+01
 tran: time= 5.6224E-09 tot_iter=    3035 conv_iter=     711 cpu clock= 7.58E+01
 tran: time= 6.4441E-09 tot_iter=    3409 conv_iter=     809 cpu clock= 7.59E+01
 tran: time= 7.2008E-09 tot_iter=    4008 conv_iter=     947 cpu clock= 7.59E+01
 tran: time= 8.0000E-09 tot_iter=    4052 conv_iter=     960 cpu clock= 7.59E+01
 sweep: tran tran47   end,  cpu clock=  7.59E+01 peak memory=       191 mb
 parameter: t1              =    3.47E-09
 output: tsu_b_01.tr4
 sweep: tran tran48   begin, stop_t=  8.00E-09 #sweeps=8001 cpu clock=  7.59E+01
 tran: time= 8.8861E-10 tot_iter=      14 conv_iter=       7 cpu clock= 7.59E+01
 tran: time= 1.6030E-09 tot_iter=     717 conv_iter=     158 cpu clock= 7.60E+01
 tran: time= 2.4381E-09 tot_iter=    1100 conv_iter=     257 cpu clock= 7.60E+01
 tran: time= 3.2085E-09 tot_iter=    1699 conv_iter=     391 cpu clock= 7.60E+01
 tran: time= 4.0500E-09 tot_iter=    1930 conv_iter=     446 cpu clock= 7.60E+01
 tran: time= 4.8229E-09 tot_iter=    2293 conv_iter=     539 cpu clock= 7.61E+01
 tran: time= 5.6771E-09 tot_iter=    3042 conv_iter=     712 cpu clock= 7.61E+01
 tran: time= 6.4922E-09 tot_iter=    3410 conv_iter=     808 cpu clock= 7.62E+01
 tran: time= 7.2093E-09 tot_iter=    4054 conv_iter=     954 cpu clock= 7.62E+01
 tran: time= 8.0000E-09 tot_iter=    4098 conv_iter=     967 cpu clock= 7.62E+01
 sweep: tran tran48   end,  cpu clock=  7.62E+01 peak memory=       191 mb
 parameter: t1              =    3.48E-09
 output: tsu_b_01.tr4
 sweep: tran tran49   begin, stop_t=  8.00E-09 #sweeps=8001 cpu clock=  7.62E+01
 tran: time= 8.8861E-10 tot_iter=      14 conv_iter=       7 cpu clock= 7.62E+01
 tran: time= 1.6030E-09 tot_iter=     717 conv_iter=     158 cpu clock= 7.62E+01
 tran: time= 2.4381E-09 tot_iter=    1100 conv_iter=     257 cpu clock= 7.63E+01
 tran: time= 3.2085E-09 tot_iter=    1699 conv_iter=     391 cpu clock= 7.63E+01
 tran: time= 4.0153E-09 tot_iter=    1923 conv_iter=     445 cpu clock= 7.63E+01
 tran: time= 5.0000E-09 tot_iter=    2279 conv_iter=     539 cpu clock= 7.63E+01
 tran: time= 5.6436E-09 tot_iter=    2991 conv_iter=     701 cpu clock= 7.64E+01
 tran: time= 6.4528E-09 tot_iter=    3362 conv_iter=     799 cpu clock= 7.64E+01
 tran: time= 7.2015E-09 tot_iter=    3957 conv_iter=     934 cpu clock= 7.65E+01
 tran: time= 8.0000E-09 tot_iter=    4001 conv_iter=     947 cpu clock= 7.65E+01
 sweep: tran tran49   end,  cpu clock=  7.65E+01 peak memory=       191 mb
 parameter: t1              =    3.49E-09
 output: tsu_b_01.tr4
 sweep: tran tran50   begin, stop_t=  8.00E-09 #sweeps=8001 cpu clock=  7.65E+01
 tran: time= 8.8861E-10 tot_iter=      14 conv_iter=       7 cpu clock= 7.65E+01
 tran: time= 1.6030E-09 tot_iter=     717 conv_iter=     158 cpu clock= 7.65E+01
 tran: time= 2.4381E-09 tot_iter=    1100 conv_iter=     257 cpu clock= 7.66E+01
 tran: time= 3.2085E-09 tot_iter=    1699 conv_iter=     391 cpu clock= 7.66E+01
 tran: time= 4.0338E-09 tot_iter=    1955 conv_iter=     450 cpu clock= 7.66E+01
 tran: time= 5.0000E-09 tot_iter=    2325 conv_iter=     547 cpu clock= 7.66E+01
 tran: time= 5.6224E-09 tot_iter=    3038 conv_iter=     711 cpu clock= 7.67E+01
 tran: time= 6.4441E-09 tot_iter=    3412 conv_iter=     809 cpu clock= 7.67E+01
 tran: time= 7.2008E-09 tot_iter=    4011 conv_iter=     947 cpu clock= 7.68E+01
 tran: time= 8.0000E-09 tot_iter=    4055 conv_iter=     960 cpu clock= 7.68E+01
 sweep: tran tran50   end,  cpu clock=  7.68E+01 peak memory=       191 mb
 parameter: t1              =    3.50E-09
 output: tsu_b_01.tr4
 sweep: tran tran51   begin, stop_t=  8.00E-09 #sweeps=8001 cpu clock=  7.68E+01
 tran: time= 8.8861E-10 tot_iter=      14 conv_iter=       7 cpu clock= 7.68E+01
 tran: time= 1.6030E-09 tot_iter=     717 conv_iter=     158 cpu clock= 7.68E+01
 tran: time= 2.4381E-09 tot_iter=    1100 conv_iter=     257 cpu clock= 7.68E+01
 tran: time= 3.2085E-09 tot_iter=    1699 conv_iter=     391 cpu clock= 7.69E+01
 tran: time= 4.0500E-09 tot_iter=    1955 conv_iter=     451 cpu clock= 7.69E+01
 tran: time= 5.0000E-09 tot_iter=    2307 conv_iter=     543 cpu clock= 7.69E+01
 tran: time= 5.6007E-09 tot_iter=    3015 conv_iter=     705 cpu clock= 7.70E+01
 tran: time= 6.4586E-09 tot_iter=    3394 conv_iter=     805 cpu clock= 7.70E+01
 tran: time= 7.2168E-09 tot_iter=    4016 conv_iter=     945 cpu clock= 7.70E+01
 tran: time= 8.0000E-09 tot_iter=    4057 conv_iter=     957 cpu clock= 7.70E+01
 sweep: tran tran51   end,  cpu clock=  7.70E+01 peak memory=       191 mb
 sweep: parameter       parameter       1 end
>info:         ***** hspice job concluded
 lic: Release hspice token(s)
