$DATA1 SOURCE='HSPICE' VERSION='K-2015.06-SP2 linux64' PARAM_COUNT=2
.TITLE 'case 2: vdd=0.7'
 index            delaytime        maxvout          setuptime       
                  temper           alter#          
 1                   failed           failed           failed       
                    25.0000        2               
